gem5 Simulator System.  http://gem5.org
gem5 is copyrighted software; use the --copyright option for details.

gem5 compiled Mar 21 2019 21:21:33
gem5 started Mar 21 2019 21:21:45
gem5 executing on liu-MS-7996, pid 28356
command line: /home/liu/gemn/gem5/build/X86_MESI_Two_Level/gem5.opt --outdir=/home/liu/gemn/gem5/my_script/output/X86_MESI_Two_Level/ubuntu-16.img/vmlinux_4.19.0/511.povray_r_readfile_0/ --debug-flags=numflag /home/liu/gemn/gem5/configs/example/fs.py --checkpoint-dir=/home/liu/gemn/gem5/my_script/checkpoints/X86_MESI_Two_Level --script /home/liu/gemn/gem5/my_script/readfiles/511.povray_r_readfile_0 --kernel vmlinux_4.19.0 --disk-image ubuntu-16.img --cpu-type=DerivO3CPU --restore-with-cpu=AtomicSimpleCPU --maxinsts=10000000 --mem-size 2GB --num-cpus 2 --caches --l2cache --num-dirs=2 --num-l2caches=2 --num-l3caches=2 --l1d_size=32kB --l1i_size=32kB --l2_size=2MB --l3_size=2MB --l1d_assoc=8 --l1i_assoc=8 --l2_assoc=16 --l3_assoc=8 --ruby -r 1 --command-line 'earlyprintk=ttyS0 console=ttyS0 console_msg_format=syslog lpj=7999923 panic=-1 printk.devkmsg=on printk.time=y rw root=/dev/sda2'

l1
<orphan LinuxX86System>.ruby.l1_cntrl0
l1
<orphan LinuxX86System>.ruby.l1_cntrl1
<orphan L0Cache>
before exec l0
after exec l0
<orphan LinuxX86System>.ruby.l0_cntrl0
i love andrew

i love andrew

after response

<orphan L0Cache>
before exec l0
after exec l0
<orphan LinuxX86System>.ruby.l0_cntrl1
i love andrew

i love andrew

after response

Global frequency set at 1000000000000 ticks per second
      0: rtc: Real-time clock set to Sun Jan  1 00:00:00 2012
Switch at curTick count:10000
Switched CPUS @ tick 2508364162500
switching cpus
**** REAL SIMULATION ****
2511475267500: system.ruby.l1_cntrl1: MESI_Two_Level-L1cache.sm:1080: 78810f00
2511475271500: system.ruby.l0_cntrl0: MESI_Two_Level-L00cache.sm:213: andrew
2511475301000: system.ruby.l1_cntrl1: MESI_Two_Level-L1cache.sm:1080: 78810f40
2511475305000: system.ruby.l1_cntrl1: MESI_Two_Level-L1cache.sm:1080: 78810f00
2511475305000: system.ruby.l0_cntrl0: MESI_Two_Level-L00cache.sm:213: andrew
2511475309000: system.ruby.l0_cntrl0: MESI_Two_Level-L00cache.sm:213: andrew
2511475539500: system.ruby.l1_cntrl1: MESI_Two_Level-L1cache.sm:1080: 78810f00
2511475543500: system.ruby.l0_cntrl0: MESI_Two_Level-L00cache.sm:213: andrew
2511493838500: system.ruby.l1_cntrl1: MESI_Two_Level-L1cache.sm:1060: 1050f40
2511493842500: system.ruby.l0_cntrl0: MESI_Two_Level-L00cache.sm:213: andrew
2511517933000: system.ruby.l1_cntrl1: MESI_Two_Level-L1cache.sm:1060: 1050f40
2511517937000: system.ruby.l0_cntrl0: MESI_Two_Level-L00cache.sm:213: andrew
2511562963000: system.ruby.l1_cntrl1: MESI_Two_Level-L1cache.sm:1060: 774d0f40
2511562967000: system.ruby.l0_cntrl0: MESI_Two_Level-L00cache.sm:213: andrew
2511562996500: system.ruby.l1_cntrl1: MESI_Two_Level-L1cache.sm:1080: 774d0f40
2511563000500: system.ruby.l0_cntrl0: MESI_Two_Level-L00cache.sm:213: andrew
2511563007000: system.ruby.l1_cntrl1: MESI_Two_Level-L1cache.sm:1060: 774d0f00
2511563011000: system.ruby.l0_cntrl0: MESI_Two_Level-L00cache.sm:213: andrew
2511601008000: system.ruby.l1_cntrl1: MESI_Two_Level-L1cache.sm:1060: 1050f40
2511601012000: system.ruby.l0_cntrl0: MESI_Two_Level-L00cache.sm:213: andrew
2511622875500: system.ruby.l1_cntrl1: MESI_Two_Level-L1cache.sm:1080: 1050f40
2511622879500: system.ruby.l0_cntrl0: MESI_Two_Level-L00cache.sm:213: andrew
2511630640500: system.ruby.l1_cntrl1: MESI_Two_Level-L1cache.sm:1080: 1050f40
2511630644500: system.ruby.l0_cntrl0: MESI_Two_Level-L00cache.sm:213: andrew
2511633710000: system.ruby.l1_cntrl1: MESI_Two_Level-L1cache.sm:1080: 1050f40
2511633714000: system.ruby.l0_cntrl0: MESI_Two_Level-L00cache.sm:213: andrew
2511637934000: system.ruby.l1_cntrl1: MESI_Two_Level-L1cache.sm:1080: 1050f40
2511637938000: system.ruby.l0_cntrl0: MESI_Two_Level-L00cache.sm:213: andrew
2511639189000: system.ruby.l1_cntrl1: MESI_Two_Level-L1cache.sm:1080: 1050f40
2511639193000: system.ruby.l0_cntrl0: MESI_Two_Level-L00cache.sm:213: andrew
2511647982000: system.ruby.l1_cntrl1: MESI_Two_Level-L1cache.sm:1080: 1050f40
2511647986000: system.ruby.l0_cntrl0: MESI_Two_Level-L00cache.sm:213: andrew
2511648023500: system.ruby.l1_cntrl1: MESI_Two_Level-L1cache.sm:1080: 1050f40
2511648027500: system.ruby.l0_cntrl0: MESI_Two_Level-L00cache.sm:213: andrew
2511669693000: system.ruby.l1_cntrl1: MESI_Two_Level-L1cache.sm:1060: 1050f40
2511669697000: system.ruby.l0_cntrl0: MESI_Two_Level-L00cache.sm:213: andrew
2511669739000: system.ruby.l1_cntrl1: MESI_Two_Level-L1cache.sm:1080: 1050f40
2511669743000: system.ruby.l0_cntrl0: MESI_Two_Level-L00cache.sm:213: andrew
2511685950000: system.ruby.l1_cntrl1: MESI_Two_Level-L1cache.sm:1080: 1050f40
2511685954000: system.ruby.l0_cntrl0: MESI_Two_Level-L00cache.sm:213: andrew
2511725152500: system.ruby.l1_cntrl1: MESI_Two_Level-L1cache.sm:1060: 1050e80
2511725156500: system.ruby.l0_cntrl0: MESI_Two_Level-L00cache.sm:213: andrew
2511725412500: system.ruby.l1_cntrl1: MESI_Two_Level-L1cache.sm:1080: 1050e80
2511725416500: system.ruby.l0_cntrl0: MESI_Two_Level-L00cache.sm:213: andrew
2511736397000: system.ruby.l1_cntrl1: MESI_Two_Level-L1cache.sm:1060: 79650ec0
2511736401000: system.ruby.l0_cntrl0: MESI_Two_Level-L00cache.sm:213: andrew
2511736430000: system.ruby.l1_cntrl1: MESI_Two_Level-L1cache.sm:1080: 79650ec0
2511736434000: system.ruby.l0_cntrl0: MESI_Two_Level-L00cache.sm:213: andrew
2511755950000: system.ruby.l1_cntrl1: MESI_Two_Level-L1cache.sm:1060: 1050f40
2511755954000: system.ruby.l0_cntrl0: MESI_Two_Level-L00cache.sm:213: andrew
2511762645500: system.ruby.l1_cntrl1: MESI_Two_Level-L1cache.sm:1080: 11d3940
2511762649500: system.ruby.l0_cntrl0: MESI_Two_Level-L00cache.sm:213: andrew
2511762729500: system.ruby.l1_cntrl1: MESI_Two_Level-L1cache.sm:1080: 11d3900
2511762733500: system.ruby.l0_cntrl0: MESI_Two_Level-L00cache.sm:213: andrew
2511764252000: system.ruby.l1_cntrl1: MESI_Two_Level-L1cache.sm:1080: 11d3900
2511764256000: system.ruby.l0_cntrl0: MESI_Two_Level-L00cache.sm:213: andrew
2511764284500: system.ruby.l1_cntrl1: MESI_Two_Level-L1cache.sm:1080: 11d3900
2511764288500: system.ruby.l0_cntrl0: MESI_Two_Level-L00cache.sm:213: andrew
2511764318000: system.ruby.l1_cntrl1: MESI_Two_Level-L1cache.sm:1080: 11d3940
2511764322000: system.ruby.l0_cntrl0: MESI_Two_Level-L00cache.sm:213: andrew
2511770684500: system.ruby.l1_cntrl1: MESI_Two_Level-L1cache.sm:1080: 77ac6000
2511770688500: system.ruby.l0_cntrl0: MESI_Two_Level-L00cache.sm:213: andrew
2511770693000: system.ruby.l1_cntrl1: MESI_Two_Level-L1cache.sm:1080: 77ac6040
2511770694000: system.ruby.l1_cntrl1: MESI_Two_Level-L1cache.sm:1080: 77ac6080
2511770697000: system.ruby.l0_cntrl0: MESI_Two_Level-L00cache.sm:213: andrew
2511770698000: system.ruby.l0_cntrl0: MESI_Two_Level-L00cache.sm:213: andrew
2511770714000: system.ruby.l1_cntrl1: MESI_Two_Level-L1cache.sm:1080: 77ac60c0
2511770717500: system.ruby.l1_cntrl1: MESI_Two_Level-L1cache.sm:1080: 77ac6000
2511770718000: system.ruby.l0_cntrl0: MESI_Two_Level-L00cache.sm:213: andrew
2511770721500: system.ruby.l0_cntrl0: MESI_Two_Level-L00cache.sm:213: andrew
2511770726500: system.ruby.l1_cntrl1: MESI_Two_Level-L1cache.sm:1080: 77ac6040
2511770727500: system.ruby.l1_cntrl1: MESI_Two_Level-L1cache.sm:1080: 77ac6080
2511770730500: system.ruby.l0_cntrl0: MESI_Two_Level-L00cache.sm:213: andrew
2511770731500: system.ruby.l0_cntrl0: MESI_Two_Level-L00cache.sm:213: andrew
2511770748000: system.ruby.l1_cntrl1: MESI_Two_Level-L1cache.sm:1080: 77ac60c0
2511770750500: system.ruby.l1_cntrl1: MESI_Two_Level-L1cache.sm:1080: 77ac6000
2511770752000: system.ruby.l0_cntrl0: MESI_Two_Level-L00cache.sm:213: andrew
2511770754500: system.ruby.l0_cntrl0: MESI_Two_Level-L00cache.sm:213: andrew
2511770760000: system.ruby.l1_cntrl1: MESI_Two_Level-L1cache.sm:1080: 77ac6040
2511770761000: system.ruby.l1_cntrl1: MESI_Two_Level-L1cache.sm:1080: 77ac6080
2511770764000: system.ruby.l0_cntrl0: MESI_Two_Level-L00cache.sm:213: andrew
2511770765000: system.ruby.l0_cntrl0: MESI_Two_Level-L00cache.sm:213: andrew
2511770782000: system.ruby.l1_cntrl1: MESI_Two_Level-L1cache.sm:1080: 77ac60c0
2511770783500: system.ruby.l1_cntrl1: MESI_Two_Level-L1cache.sm:1080: 77ac6000
2511770786000: system.ruby.l0_cntrl0: MESI_Two_Level-L00cache.sm:213: andrew
2511770787500: system.ruby.l0_cntrl0: MESI_Two_Level-L00cache.sm:213: andrew
2511770792500: system.ruby.l1_cntrl1: MESI_Two_Level-L1cache.sm:1080: 77ac6040
2511770795500: system.ruby.l1_cntrl1: MESI_Two_Level-L1cache.sm:1080: 77ac6080
2511770796500: system.ruby.l0_cntrl0: MESI_Two_Level-L00cache.sm:213: andrew
2511770799500: system.ruby.l0_cntrl0: MESI_Two_Level-L00cache.sm:213: andrew
2511770816000: system.ruby.l1_cntrl1: MESI_Two_Level-L1cache.sm:1080: 77ac60c0
2511770817000: system.ruby.l1_cntrl1: MESI_Two_Level-L1cache.sm:1080: 77ac6000
2511770820000: system.ruby.l0_cntrl0: MESI_Two_Level-L00cache.sm:213: andrew
2511770821000: system.ruby.l0_cntrl0: MESI_Two_Level-L00cache.sm:213: andrew
2511770825500: system.ruby.l1_cntrl1: MESI_Two_Level-L1cache.sm:1080: 77ac6040
2511770829000: system.ruby.l1_cntrl1: MESI_Two_Level-L1cache.sm:1080: 77ac6080
2511770829500: system.ruby.l0_cntrl0: MESI_Two_Level-L00cache.sm:213: andrew
2511770833000: system.ruby.l0_cntrl0: MESI_Two_Level-L00cache.sm:213: andrew
2511770849500: system.ruby.l1_cntrl1: MESI_Two_Level-L1cache.sm:1080: 77ac60c0
2511770851000: system.ruby.l1_cntrl1: MESI_Two_Level-L1cache.sm:1080: 77ac6000
2511770853500: system.ruby.l0_cntrl0: MESI_Two_Level-L00cache.sm:213: andrew
2511770855000: system.ruby.l0_cntrl0: MESI_Two_Level-L00cache.sm:213: andrew
2511770858500: system.ruby.l1_cntrl1: MESI_Two_Level-L1cache.sm:1080: 77ac6040
2511770862000: system.ruby.l1_cntrl1: MESI_Two_Level-L1cache.sm:1080: 77ac6080
2511770862500: system.ruby.l0_cntrl0: MESI_Two_Level-L00cache.sm:213: andrew
2511770866000: system.ruby.l0_cntrl0: MESI_Two_Level-L00cache.sm:213: andrew
2511770884500: system.ruby.l1_cntrl1: MESI_Two_Level-L1cache.sm:1080: 77ac6000
2511770888500: system.ruby.l0_cntrl0: MESI_Two_Level-L00cache.sm:213: andrew
2511770891500: system.ruby.l1_cntrl1: MESI_Two_Level-L1cache.sm:1080: 77ac6040
2511770895000: system.ruby.l1_cntrl1: MESI_Two_Level-L1cache.sm:1080: 77ac6080
2511770895500: system.ruby.l0_cntrl0: MESI_Two_Level-L00cache.sm:213: andrew
2511770896000: system.ruby.l1_cntrl1: MESI_Two_Level-L1cache.sm:1080: 77ac60c0
2511770899000: system.ruby.l0_cntrl0: MESI_Two_Level-L00cache.sm:213: andrew
2511770900000: system.ruby.l0_cntrl0: MESI_Two_Level-L00cache.sm:213: andrew
2511770924000: system.ruby.l1_cntrl1: MESI_Two_Level-L1cache.sm:1080: 77ac6040
2511770928000: system.ruby.l0_cntrl0: MESI_Two_Level-L00cache.sm:213: andrew
2511770930000: system.ruby.l1_cntrl1: MESI_Two_Level-L1cache.sm:1080: 77ac60c0
2511770934000: system.ruby.l0_cntrl0: MESI_Two_Level-L00cache.sm:213: andrew
2511772111000: system.ruby.l1_cntrl1: MESI_Two_Level-L1cache.sm:1060: 1050f40
2511772115000: system.ruby.l0_cntrl0: MESI_Two_Level-L00cache.sm:213: andrew
2511778040500: system.ruby.l1_cntrl1: MESI_Two_Level-L1cache.sm:1060: 79650ec0
2511778044500: system.ruby.l0_cntrl0: MESI_Two_Level-L00cache.sm:213: andrew
2511778073500: system.ruby.l1_cntrl1: MESI_Two_Level-L1cache.sm:1080: 79650ec0
2511778077500: system.ruby.l0_cntrl0: MESI_Two_Level-L00cache.sm:213: andrew
2511778106500: system.ruby.l1_cntrl1: MESI_Two_Level-L1cache.sm:1080: 79650ec0
2511778110500: system.ruby.l0_cntrl0: MESI_Two_Level-L00cache.sm:213: andrew
2511778139500: system.ruby.l1_cntrl1: MESI_Two_Level-L1cache.sm:1080: 79650ec0
2511778143500: system.ruby.l0_cntrl0: MESI_Two_Level-L00cache.sm:213: andrew
2511778215500: system.ruby.l1_cntrl1: MESI_Two_Level-L1cache.sm:1080: 79650ec0
2511778219500: system.ruby.l0_cntrl0: MESI_Two_Level-L00cache.sm:213: andrew
2511778225500: system.ruby.l1_cntrl1: MESI_Two_Level-L1cache.sm:1060: 79650e80
2511778229500: system.ruby.l0_cntrl0: MESI_Two_Level-L00cache.sm:213: andrew
2511779560000: system.ruby.l1_cntrl1: MESI_Two_Level-L1cache.sm:1060: 7cb86080
2511779564000: system.ruby.l0_cntrl0: MESI_Two_Level-L00cache.sm:213: andrew
2511780367500: system.ruby.l1_cntrl1: MESI_Two_Level-L1cache.sm:1080: 7cb86080
2511780371500: system.ruby.l0_cntrl0: MESI_Two_Level-L00cache.sm:213: andrew
2511780436500: system.ruby.l1_cntrl1: MESI_Two_Level-L1cache.sm:1080: 7cb86080
2511780440500: system.ruby.l0_cntrl0: MESI_Two_Level-L00cache.sm:213: andrew
2511780469500: system.ruby.l1_cntrl1: MESI_Two_Level-L1cache.sm:1080: 7cb86080
2511780473500: system.ruby.l0_cntrl0: MESI_Two_Level-L00cache.sm:213: andrew
2511780502500: system.ruby.l1_cntrl1: MESI_Two_Level-L1cache.sm:1080: 7cb86080
2511780506500: system.ruby.l0_cntrl0: MESI_Two_Level-L00cache.sm:213: andrew
2511780953500: system.ruby.l1_cntrl1: MESI_Two_Level-L1cache.sm:1080: 79650ec0
2511780957500: system.ruby.l0_cntrl0: MESI_Two_Level-L00cache.sm:213: andrew
2511780986500: system.ruby.l1_cntrl1: MESI_Two_Level-L1cache.sm:1080: 79650ec0
2511780990500: system.ruby.l0_cntrl0: MESI_Two_Level-L00cache.sm:213: andrew
2511781019500: system.ruby.l1_cntrl1: MESI_Two_Level-L1cache.sm:1080: 79650ec0
2511781023500: system.ruby.l0_cntrl0: MESI_Two_Level-L00cache.sm:213: andrew
2511781052500: system.ruby.l1_cntrl1: MESI_Two_Level-L1cache.sm:1080: 79650ec0
2511781056500: system.ruby.l0_cntrl0: MESI_Two_Level-L00cache.sm:213: andrew
2511781099000: system.ruby.l1_cntrl1: MESI_Two_Level-L1cache.sm:1080: 79650e80
2511781103000: system.ruby.l0_cntrl0: MESI_Two_Level-L00cache.sm:213: andrew
2511781135000: system.ruby.l1_cntrl1: MESI_Two_Level-L1cache.sm:1080: 79650ec0
2511781139000: system.ruby.l0_cntrl0: MESI_Two_Level-L00cache.sm:213: andrew
2511781729000: system.ruby.l1_cntrl1: MESI_Two_Level-L1cache.sm:1060: 1186000
2511781733000: system.ruby.l0_cntrl0: MESI_Two_Level-L00cache.sm:213: andrew
2511781761500: system.ruby.l1_cntrl1: MESI_Two_Level-L1cache.sm:1080: 1186000
2511781765500: system.ruby.l0_cntrl0: MESI_Two_Level-L00cache.sm:213: andrew
2511781804000: system.ruby.l1_cntrl1: MESI_Two_Level-L1cache.sm:1060: 1186040
2511781808000: system.ruby.l0_cntrl0: MESI_Two_Level-L00cache.sm:213: andrew
2511781836500: system.ruby.l1_cntrl1: MESI_Two_Level-L1cache.sm:1080: 1186040
2511781840500: system.ruby.l0_cntrl0: MESI_Two_Level-L00cache.sm:213: andrew
2511783099000: system.ruby.l1_cntrl1: MESI_Two_Level-L1cache.sm:1080: 1186000
2511783103000: system.ruby.l0_cntrl0: MESI_Two_Level-L00cache.sm:213: andrew
2511789983000: system.ruby.l1_cntrl1: MESI_Two_Level-L1cache.sm:1060: 1050f40
2511789987000: system.ruby.l0_cntrl0: MESI_Two_Level-L00cache.sm:213: andrew
2511793288000: system.ruby.l1_cntrl1: MESI_Two_Level-L1cache.sm:1060: 1186000
2511793292000: system.ruby.l0_cntrl0: MESI_Two_Level-L00cache.sm:213: andrew
2511793323000: system.ruby.l1_cntrl1: MESI_Two_Level-L1cache.sm:1080: 1186040
2511793327000: system.ruby.l0_cntrl0: MESI_Two_Level-L00cache.sm:213: andrew
2511793355500: system.ruby.l1_cntrl1: MESI_Two_Level-L1cache.sm:1080: 1186040
2511793359500: system.ruby.l0_cntrl0: MESI_Two_Level-L00cache.sm:213: andrew
2511793719500: system.ruby.l1_cntrl1: MESI_Two_Level-L1cache.sm:1060: 7cb860c0
2511793723500: system.ruby.l0_cntrl0: MESI_Two_Level-L00cache.sm:213: andrew
2511800630500: system.ruby.l1_cntrl1: MESI_Two_Level-L1cache.sm:1080: 7cb86000
2511800634500: system.ruby.l1_cntrl1: MESI_Two_Level-L1cache.sm:1080: 7cb86040
2511800634500: system.ruby.l0_cntrl0: MESI_Two_Level-L00cache.sm:213: andrew
2511800638500: system.ruby.l0_cntrl0: MESI_Two_Level-L00cache.sm:213: andrew
2511800643000: system.ruby.l1_cntrl1: MESI_Two_Level-L1cache.sm:1080: 7cb86080
2511800647000: system.ruby.l0_cntrl0: MESI_Two_Level-L00cache.sm:213: andrew
2511800663000: system.ruby.l1_cntrl1: MESI_Two_Level-L1cache.sm:1080: 7cb86000
2511800667000: system.ruby.l1_cntrl1: MESI_Two_Level-L1cache.sm:1080: 7cb86040
2511800667000: system.ruby.l0_cntrl0: MESI_Two_Level-L00cache.sm:213: andrew
2511800671000: system.ruby.l0_cntrl0: MESI_Two_Level-L00cache.sm:213: andrew
2511800696000: system.ruby.l1_cntrl1: MESI_Two_Level-L1cache.sm:1080: 7cb86000
2511800700000: system.ruby.l0_cntrl0: MESI_Two_Level-L00cache.sm:213: andrew
2511800700500: system.ruby.l1_cntrl1: MESI_Two_Level-L1cache.sm:1080: 7cb86040
2511800704500: system.ruby.l0_cntrl0: MESI_Two_Level-L00cache.sm:213: andrew
2511800729000: system.ruby.l1_cntrl1: MESI_Two_Level-L1cache.sm:1080: 7cb86000
2511800733000: system.ruby.l0_cntrl0: MESI_Two_Level-L00cache.sm:213: andrew
2511800733500: system.ruby.l1_cntrl1: MESI_Two_Level-L1cache.sm:1080: 7cb86040
2511800737500: system.ruby.l0_cntrl0: MESI_Two_Level-L00cache.sm:213: andrew
2511800762000: system.ruby.l1_cntrl1: MESI_Two_Level-L1cache.sm:1080: 7cb86000
2511800766000: system.ruby.l0_cntrl0: MESI_Two_Level-L00cache.sm:213: andrew
2511800766500: system.ruby.l1_cntrl1: MESI_Two_Level-L1cache.sm:1080: 7cb86040
2511800770500: system.ruby.l0_cntrl0: MESI_Two_Level-L00cache.sm:213: andrew
2511800795000: system.ruby.l1_cntrl1: MESI_Two_Level-L1cache.sm:1080: 7cb86000
2511800799000: system.ruby.l1_cntrl1: MESI_Two_Level-L1cache.sm:1080: 7cb86040
2511800799000: system.ruby.l0_cntrl0: MESI_Two_Level-L00cache.sm:213: andrew
2511800803000: system.ruby.l0_cntrl0: MESI_Two_Level-L00cache.sm:213: andrew
2511800828000: system.ruby.l1_cntrl1: MESI_Two_Level-L1cache.sm:1080: 7cb86000
2511800832000: system.ruby.l1_cntrl1: MESI_Two_Level-L1cache.sm:1080: 7cb86040
2511800832000: system.ruby.l0_cntrl0: MESI_Two_Level-L00cache.sm:213: andrew
2511800836000: system.ruby.l0_cntrl0: MESI_Two_Level-L00cache.sm:213: andrew
2511800861000: system.ruby.l1_cntrl1: MESI_Two_Level-L1cache.sm:1080: 7cb86000
2511800865000: system.ruby.l0_cntrl0: MESI_Two_Level-L00cache.sm:213: andrew
2511800895000: system.ruby.l1_cntrl1: MESI_Two_Level-L1cache.sm:1080: 7cb86040
2511800899000: system.ruby.l0_cntrl0: MESI_Two_Level-L00cache.sm:213: andrew
2511801852000: system.ruby.l1_cntrl1: MESI_Two_Level-L1cache.sm:1080: 1186000
2511801856000: system.ruby.l0_cntrl0: MESI_Two_Level-L00cache.sm:213: andrew
2511801887000: system.ruby.l1_cntrl1: MESI_Two_Level-L1cache.sm:1080: 1186040
2511801891000: system.ruby.l0_cntrl0: MESI_Two_Level-L00cache.sm:213: andrew
2511801927500: system.ruby.l1_cntrl1: MESI_Two_Level-L1cache.sm:1080: 1186040
2511801931500: system.ruby.l0_cntrl0: MESI_Two_Level-L00cache.sm:213: andrew
2511802554500: system.ruby.l1_cntrl1: MESI_Two_Level-L1cache.sm:1080: 1186040
2511802558500: system.ruby.l0_cntrl0: MESI_Two_Level-L00cache.sm:213: andrew
2511803769000: system.ruby.l1_cntrl1: MESI_Two_Level-L1cache.sm:1060: 1050f40
2511803773000: system.ruby.l0_cntrl0: MESI_Two_Level-L00cache.sm:213: andrew
2511808673000: system.ruby.l1_cntrl1: MESI_Two_Level-L1cache.sm:1080: 1050f40
2511808677000: system.ruby.l0_cntrl0: MESI_Two_Level-L00cache.sm:213: andrew
2511811922000: system.ruby.l1_cntrl1: MESI_Two_Level-L1cache.sm:1080: 1050f40
2511811926000: system.ruby.l0_cntrl0: MESI_Two_Level-L00cache.sm:213: andrew
2511812012000: system.ruby.l1_cntrl1: MESI_Two_Level-L1cache.sm:1080: 1050f40
2511812016000: system.ruby.l0_cntrl0: MESI_Two_Level-L00cache.sm:213: andrew
2511814656500: system.ruby.l1_cntrl1: MESI_Two_Level-L1cache.sm:1060: 1f90e80
2511814660500: system.ruby.l0_cntrl0: MESI_Two_Level-L00cache.sm:213: andrew
2511814733500: system.ruby.l1_cntrl1: MESI_Two_Level-L1cache.sm:1080: 1f90e80
2511814737500: system.ruby.l0_cntrl0: MESI_Two_Level-L00cache.sm:213: andrew
2511815532500: system.ruby.l1_cntrl1: MESI_Two_Level-L1cache.sm:1080: 1050f40
2511815536500: system.ruby.l0_cntrl0: MESI_Two_Level-L00cache.sm:213: andrew
2511820716000: system.ruby.l1_cntrl1: MESI_Two_Level-L1cache.sm:1080: 1050f40
2511820720000: system.ruby.l0_cntrl0: MESI_Two_Level-L00cache.sm:213: andrew
2511824072000: system.ruby.l1_cntrl1: MESI_Two_Level-L1cache.sm:1080: 1050f40
2511824076000: system.ruby.l0_cntrl0: MESI_Two_Level-L00cache.sm:213: andrew
2511829895000: system.ruby.l1_cntrl1: MESI_Two_Level-L1cache.sm:1060: 1193900
2511829899000: system.ruby.l0_cntrl0: MESI_Two_Level-L00cache.sm:213: andrew
2511829927500: system.ruby.l1_cntrl1: MESI_Two_Level-L1cache.sm:1080: 1193900
2511829931500: system.ruby.l0_cntrl0: MESI_Two_Level-L00cache.sm:213: andrew
2511829969500: system.ruby.l1_cntrl1: MESI_Two_Level-L1cache.sm:1080: 1193900
2511829970000: system.ruby.l1_cntrl1: MESI_Two_Level-L1cache.sm:1060: 1193940
2511829973500: system.ruby.l0_cntrl0: MESI_Two_Level-L00cache.sm:213: andrew
2511829974000: system.ruby.l0_cntrl0: MESI_Two_Level-L00cache.sm:213: andrew
2511830930500: system.ruby.l1_cntrl1: MESI_Two_Level-L1cache.sm:1080: 1193900
2511830934500: system.ruby.l0_cntrl0: MESI_Two_Level-L00cache.sm:213: andrew
2511830968000: system.ruby.l1_cntrl1: MESI_Two_Level-L1cache.sm:1080: 1193900
2511830972000: system.ruby.l0_cntrl0: MESI_Two_Level-L00cache.sm:213: andrew
2511831106000: system.ruby.l1_cntrl1: MESI_Two_Level-L1cache.sm:1080: 1193900
2511831110000: system.ruby.l0_cntrl0: MESI_Two_Level-L00cache.sm:213: andrew
2511833305000: system.ruby.l1_cntrl1: MESI_Two_Level-L1cache.sm:1060: 1050f40
2511833309000: system.ruby.l0_cntrl0: MESI_Two_Level-L00cache.sm:213: andrew
2511838603000: system.ruby.l1_cntrl1: MESI_Two_Level-L1cache.sm:1080: 7cb860c0
2511838607000: system.ruby.l0_cntrl0: MESI_Two_Level-L00cache.sm:213: andrew
2511840388500: system.ruby.l1_cntrl1: MESI_Two_Level-L1cache.sm:1060: 1193900
2511840392500: system.ruby.l0_cntrl0: MESI_Two_Level-L00cache.sm:213: andrew
2511840421000: system.ruby.l1_cntrl1: MESI_Two_Level-L1cache.sm:1080: 1193900
2511840425000: system.ruby.l0_cntrl0: MESI_Two_Level-L00cache.sm:213: andrew
2511840463000: system.ruby.l1_cntrl1: MESI_Two_Level-L1cache.sm:1080: 1193900
2511840463500: system.ruby.l1_cntrl1: MESI_Two_Level-L1cache.sm:1060: 1193940
2511840467000: system.ruby.l0_cntrl0: MESI_Two_Level-L00cache.sm:213: andrew
2511840467500: system.ruby.l0_cntrl0: MESI_Two_Level-L00cache.sm:213: andrew
2511841165500: system.ruby.l1_cntrl1: MESI_Two_Level-L1cache.sm:1080: 1193900
2511841169500: system.ruby.l0_cntrl0: MESI_Two_Level-L00cache.sm:213: andrew
2511841263000: system.ruby.l1_cntrl1: MESI_Two_Level-L1cache.sm:1080: 1193900
2511841267000: system.ruby.l0_cntrl0: MESI_Two_Level-L00cache.sm:213: andrew
2511846641000: system.ruby.l1_cntrl1: MESI_Two_Level-L1cache.sm:1060: 11860c0
2511846645000: system.ruby.l0_cntrl0: MESI_Two_Level-L00cache.sm:213: andrew
2511853608000: system.ruby.l1_cntrl1: MESI_Two_Level-L1cache.sm:1060: 1186000
2511853612000: system.ruby.l0_cntrl0: MESI_Two_Level-L00cache.sm:213: andrew
2511853650500: system.ruby.l1_cntrl1: MESI_Two_Level-L1cache.sm:1060: 1186040
2511853654500: system.ruby.l0_cntrl0: MESI_Two_Level-L00cache.sm:213: andrew
2511853683000: system.ruby.l1_cntrl1: MESI_Two_Level-L1cache.sm:1080: 1186040
2511853687000: system.ruby.l0_cntrl0: MESI_Two_Level-L00cache.sm:213: andrew
2511854456500: system.ruby.l1_cntrl1: MESI_Two_Level-L1cache.sm:1080: 1186000
2511854460500: system.ruby.l0_cntrl0: MESI_Two_Level-L00cache.sm:213: andrew
2511854491500: system.ruby.l1_cntrl1: MESI_Two_Level-L1cache.sm:1080: 1186040
2511854495500: system.ruby.l0_cntrl0: MESI_Two_Level-L00cache.sm:213: andrew
2511854524000: system.ruby.l1_cntrl1: MESI_Two_Level-L1cache.sm:1080: 1186040
2511854528000: system.ruby.l0_cntrl0: MESI_Two_Level-L00cache.sm:213: andrew
2511855750000: system.ruby.l1_cntrl1: MESI_Two_Level-L1cache.sm:1060: 1050f40
2511855754000: system.ruby.l0_cntrl0: MESI_Two_Level-L00cache.sm:213: andrew
2511859254000: system.ruby.l1_cntrl1: MESI_Two_Level-L1cache.sm:1060: 1193900
2511859258000: system.ruby.l0_cntrl0: MESI_Two_Level-L00cache.sm:213: andrew
2511859296000: system.ruby.l1_cntrl1: MESI_Two_Level-L1cache.sm:1080: 1193900
2511859296500: system.ruby.l1_cntrl1: MESI_Two_Level-L1cache.sm:1060: 1193940
2511859300000: system.ruby.l0_cntrl0: MESI_Two_Level-L00cache.sm:213: andrew
2511859300500: system.ruby.l0_cntrl0: MESI_Two_Level-L00cache.sm:213: andrew
2511860144000: system.ruby.l1_cntrl1: MESI_Two_Level-L1cache.sm:1080: 1193900
2511860148000: system.ruby.l0_cntrl0: MESI_Two_Level-L00cache.sm:213: andrew
2511860176500: system.ruby.l1_cntrl1: MESI_Two_Level-L1cache.sm:1080: 1193900
2511860180500: system.ruby.l0_cntrl0: MESI_Two_Level-L00cache.sm:213: andrew
2511860286000: system.ruby.l1_cntrl1: MESI_Two_Level-L1cache.sm:1080: 1193900
2511860290000: system.ruby.l0_cntrl0: MESI_Two_Level-L00cache.sm:213: andrew
2511862548500: system.ruby.l1_cntrl1: MESI_Two_Level-L1cache.sm:1060: 11860c0
2511862552500: system.ruby.l0_cntrl0: MESI_Two_Level-L00cache.sm:213: andrew
2511862592500: system.ruby.l1_cntrl1: MESI_Two_Level-L1cache.sm:1080: 11860c0
2511862596500: system.ruby.l0_cntrl0: MESI_Two_Level-L00cache.sm:213: andrew
2511879355500: system.ruby.l1_cntrl1: MESI_Two_Level-L1cache.sm:1060: 1186000
2511879359500: system.ruby.l0_cntrl0: MESI_Two_Level-L00cache.sm:213: andrew
2511879398000: system.ruby.l1_cntrl1: MESI_Two_Level-L1cache.sm:1060: 1186040
2511879402000: system.ruby.l0_cntrl0: MESI_Two_Level-L00cache.sm:213: andrew
2511879430500: system.ruby.l1_cntrl1: MESI_Two_Level-L1cache.sm:1080: 1186040
2511879434500: system.ruby.l0_cntrl0: MESI_Two_Level-L00cache.sm:213: andrew
2511881665500: system.ruby.l1_cntrl1: MESI_Two_Level-L1cache.sm:1080: 1186000
2511881669500: system.ruby.l0_cntrl0: MESI_Two_Level-L00cache.sm:213: andrew
2511886198000: system.ruby.l1_cntrl1: MESI_Two_Level-L1cache.sm:1080: 1186000
2511886202000: system.ruby.l0_cntrl0: MESI_Two_Level-L00cache.sm:213: andrew
2511889147500: system.ruby.l1_cntrl1: MESI_Two_Level-L1cache.sm:1080: 7cb86080
2511889151500: system.ruby.l0_cntrl0: MESI_Two_Level-L00cache.sm:213: andrew
2511890844000: system.ruby.l1_cntrl1: MESI_Two_Level-L1cache.sm:1080: 7cb86080
2511890848000: system.ruby.l0_cntrl0: MESI_Two_Level-L00cache.sm:213: andrew
2511890937000: system.ruby.l1_cntrl1: MESI_Two_Level-L1cache.sm:1080: 7cb86080
2511890941000: system.ruby.l0_cntrl0: MESI_Two_Level-L00cache.sm:213: andrew
2511890970000: system.ruby.l1_cntrl1: MESI_Two_Level-L1cache.sm:1080: 7cb86080
2511890974000: system.ruby.l0_cntrl0: MESI_Two_Level-L00cache.sm:213: andrew
2511891003000: system.ruby.l1_cntrl1: MESI_Two_Level-L1cache.sm:1080: 7cb86080
2511891007000: system.ruby.l0_cntrl0: MESI_Two_Level-L00cache.sm:213: andrew
2511892833500: system.ruby.l1_cntrl1: MESI_Two_Level-L1cache.sm:1060: 1186000
2511892837500: system.ruby.l0_cntrl0: MESI_Two_Level-L00cache.sm:213: andrew
2511892866000: system.ruby.l1_cntrl1: MESI_Two_Level-L1cache.sm:1080: 1186000
2511892870000: system.ruby.l0_cntrl0: MESI_Two_Level-L00cache.sm:213: andrew
2511892901000: system.ruby.l1_cntrl1: MESI_Two_Level-L1cache.sm:1080: 1186040
2511892905000: system.ruby.l0_cntrl0: MESI_Two_Level-L00cache.sm:213: andrew
2511892933500: system.ruby.l1_cntrl1: MESI_Two_Level-L1cache.sm:1080: 1186040
2511892937500: system.ruby.l0_cntrl0: MESI_Two_Level-L00cache.sm:213: andrew
2511894622500: system.ruby.l1_cntrl1: MESI_Two_Level-L1cache.sm:1080: 1186000
2511894626500: system.ruby.l0_cntrl0: MESI_Two_Level-L00cache.sm:213: andrew
2511894657500: system.ruby.l1_cntrl1: MESI_Two_Level-L1cache.sm:1080: 1186040
2511894661500: system.ruby.l0_cntrl0: MESI_Two_Level-L00cache.sm:213: andrew
2511894690000: system.ruby.l1_cntrl1: MESI_Two_Level-L1cache.sm:1080: 1186040
2511894694000: system.ruby.l0_cntrl0: MESI_Two_Level-L00cache.sm:213: andrew
2511901745000: system.ruby.l1_cntrl1: MESI_Two_Level-L1cache.sm:1080: 7cb86080
2511901749000: system.ruby.l0_cntrl0: MESI_Two_Level-L00cache.sm:213: andrew
2511901778000: system.ruby.l1_cntrl1: MESI_Two_Level-L1cache.sm:1080: 7cb86080
2511901782000: system.ruby.l0_cntrl0: MESI_Two_Level-L00cache.sm:213: andrew
2511901811000: system.ruby.l1_cntrl1: MESI_Two_Level-L1cache.sm:1080: 7cb86080
2511901815000: system.ruby.l0_cntrl0: MESI_Two_Level-L00cache.sm:213: andrew
2511903303500: system.ruby.l1_cntrl1: MESI_Two_Level-L1cache.sm:1060: 1186000
2511903307500: system.ruby.l0_cntrl0: MESI_Two_Level-L00cache.sm:213: andrew
2511903336000: system.ruby.l1_cntrl1: MESI_Two_Level-L1cache.sm:1080: 1186000
2511903340000: system.ruby.l0_cntrl0: MESI_Two_Level-L00cache.sm:213: andrew
2511903378500: system.ruby.l1_cntrl1: MESI_Two_Level-L1cache.sm:1060: 1186040
2511903382500: system.ruby.l0_cntrl0: MESI_Two_Level-L00cache.sm:213: andrew
2511903411000: system.ruby.l1_cntrl1: MESI_Two_Level-L1cache.sm:1080: 1186040
2511903415000: system.ruby.l0_cntrl0: MESI_Two_Level-L00cache.sm:213: andrew
2511905901500: system.ruby.l1_cntrl1: MESI_Two_Level-L1cache.sm:1060: 1050f40
2511905905500: system.ruby.l0_cntrl0: MESI_Two_Level-L00cache.sm:213: andrew
2511913957000: system.ruby.l1_cntrl1: MESI_Two_Level-L1cache.sm:1080: 7cb860c0
2511913961000: system.ruby.l0_cntrl0: MESI_Two_Level-L00cache.sm:213: andrew
2511915504500: system.ruby.l1_cntrl1: MESI_Two_Level-L1cache.sm:1060: 1186000
2511915508500: system.ruby.l0_cntrl0: MESI_Two_Level-L00cache.sm:213: andrew
2511915547000: system.ruby.l1_cntrl1: MESI_Two_Level-L1cache.sm:1060: 1186040
2511915551000: system.ruby.l0_cntrl0: MESI_Two_Level-L00cache.sm:213: andrew
2511915579500: system.ruby.l1_cntrl1: MESI_Two_Level-L1cache.sm:1080: 1186040
2511915583500: system.ruby.l0_cntrl0: MESI_Two_Level-L00cache.sm:213: andrew
2511916606500: system.ruby.l1_cntrl1: MESI_Two_Level-L1cache.sm:1080: 1050f40
2511916610500: system.ruby.l0_cntrl0: MESI_Two_Level-L00cache.sm:213: andrew
2511922154500: system.ruby.l1_cntrl1: MESI_Two_Level-L1cache.sm:1080: 1050f40
2511922158500: system.ruby.l0_cntrl0: MESI_Two_Level-L00cache.sm:213: andrew
2511948671500: system.ruby.l1_cntrl1: MESI_Two_Level-L1cache.sm:1060: 115c400
2511948675500: system.ruby.l0_cntrl0: MESI_Two_Level-L00cache.sm:213: andrew
2511953237000: system.ruby.l1_cntrl1: MESI_Two_Level-L1cache.sm:1080: 115c400
2511953241000: system.ruby.l0_cntrl0: MESI_Two_Level-L00cache.sm:213: andrew
2511953278500: system.ruby.l1_cntrl1: MESI_Two_Level-L1cache.sm:1060: 115c440
2511953282500: system.ruby.l0_cntrl0: MESI_Two_Level-L00cache.sm:213: andrew
2511953320000: system.ruby.l1_cntrl1: MESI_Two_Level-L1cache.sm:1060: 115c480
2511953324000: system.ruby.l0_cntrl0: MESI_Two_Level-L00cache.sm:213: andrew
2511953362000: system.ruby.l1_cntrl1: MESI_Two_Level-L1cache.sm:1060: 115c4c0
2511953366000: system.ruby.l0_cntrl0: MESI_Two_Level-L00cache.sm:213: andrew
2511953532000: system.ruby.l1_cntrl1: MESI_Two_Level-L1cache.sm:1080: 115c480
2511953536000: system.ruby.l0_cntrl0: MESI_Two_Level-L00cache.sm:213: andrew
2511953565500: system.ruby.l1_cntrl1: MESI_Two_Level-L1cache.sm:1080: 115c4c0
2511953569500: system.ruby.l0_cntrl0: MESI_Two_Level-L00cache.sm:213: andrew
2511953785000: system.ruby.l1_cntrl1: MESI_Two_Level-L1cache.sm:1080: 7cb860c0
2511953789000: system.ruby.l0_cntrl0: MESI_Two_Level-L00cache.sm:213: andrew
2511954156000: system.ruby.l1_cntrl1: MESI_Two_Level-L1cache.sm:1080: 115c400
2511954160000: system.ruby.l0_cntrl0: MESI_Two_Level-L00cache.sm:213: andrew
2511954188500: system.ruby.l1_cntrl1: MESI_Two_Level-L1cache.sm:1080: 115c400
2511954192500: system.ruby.l0_cntrl0: MESI_Two_Level-L00cache.sm:213: andrew
2511954215500: system.ruby.l1_cntrl1: MESI_Two_Level-L1cache.sm:1080: 115c480
2511954219500: system.ruby.l0_cntrl0: MESI_Two_Level-L00cache.sm:213: andrew
2511955589000: system.ruby.l1_cntrl1: MESI_Two_Level-L1cache.sm:1080: 115c400
2511955593000: system.ruby.l0_cntrl0: MESI_Two_Level-L00cache.sm:213: andrew
2511959877500: system.ruby.l1_cntrl1: MESI_Two_Level-L1cache.sm:1080: 115c400
2511959881500: system.ruby.l0_cntrl0: MESI_Two_Level-L00cache.sm:213: andrew
2511959911500: system.ruby.l1_cntrl1: MESI_Two_Level-L1cache.sm:1080: 115c440
2511959915500: system.ruby.l0_cntrl0: MESI_Two_Level-L00cache.sm:213: andrew
2511959950000: system.ruby.l1_cntrl1: MESI_Two_Level-L1cache.sm:1080: 115c480
2511959954000: system.ruby.l0_cntrl0: MESI_Two_Level-L00cache.sm:213: andrew
2511960018000: system.ruby.l1_cntrl1: MESI_Two_Level-L1cache.sm:1080: 115c400
2511960022000: system.ruby.l0_cntrl0: MESI_Two_Level-L00cache.sm:213: andrew
2511960052000: system.ruby.l1_cntrl1: MESI_Two_Level-L1cache.sm:1080: 115c440
2511960056000: system.ruby.l0_cntrl0: MESI_Two_Level-L00cache.sm:213: andrew
2511960090500: system.ruby.l1_cntrl1: MESI_Two_Level-L1cache.sm:1080: 115c480
2511960094500: system.ruby.l0_cntrl0: MESI_Two_Level-L00cache.sm:213: andrew
2511960096500: system.ruby.l1_cntrl1: MESI_Two_Level-L1cache.sm:1080: 115c400
2511960100500: system.ruby.l0_cntrl0: MESI_Two_Level-L00cache.sm:213: andrew
2511960158500: system.ruby.l1_cntrl1: MESI_Two_Level-L1cache.sm:1080: 115c440
2511960162500: system.ruby.l0_cntrl0: MESI_Two_Level-L00cache.sm:213: andrew
2511960192500: system.ruby.l1_cntrl1: MESI_Two_Level-L1cache.sm:1080: 115c480
2511960196500: system.ruby.l0_cntrl0: MESI_Two_Level-L00cache.sm:213: andrew
2511960227000: system.ruby.l1_cntrl1: MESI_Two_Level-L1cache.sm:1080: 115c4c0
2511960231000: system.ruby.l0_cntrl0: MESI_Two_Level-L00cache.sm:213: andrew
2511960468500: system.ruby.l1_cntrl1: MESI_Two_Level-L1cache.sm:1080: 115c480
2511960472500: system.ruby.l0_cntrl0: MESI_Two_Level-L00cache.sm:213: andrew
2511960502000: system.ruby.l1_cntrl1: MESI_Two_Level-L1cache.sm:1080: 115c4c0
2511960506000: system.ruby.l0_cntrl0: MESI_Two_Level-L00cache.sm:213: andrew
2511960654500: system.ruby.l1_cntrl1: MESI_Two_Level-L1cache.sm:1080: 7cb860c0
2511960658500: system.ruby.l0_cntrl0: MESI_Two_Level-L00cache.sm:213: andrew
2511961889500: system.ruby.l1_cntrl1: MESI_Two_Level-L1cache.sm:1060: 2217f80
2511961893500: system.ruby.l0_cntrl0: MESI_Two_Level-L00cache.sm:213: andrew
2511961898000: system.ruby.l1_cntrl1: MESI_Two_Level-L1cache.sm:1060: 2217fc0
2511961902000: system.ruby.l0_cntrl0: MESI_Two_Level-L00cache.sm:213: andrew
2511961922500: system.ruby.l1_cntrl1: MESI_Two_Level-L1cache.sm:1080: 2217f80
2511961926500: system.ruby.l0_cntrl0: MESI_Two_Level-L00cache.sm:213: andrew
2511961931500: system.ruby.l1_cntrl1: MESI_Two_Level-L1cache.sm:1080: 2217fc0
2511961935500: system.ruby.l0_cntrl0: MESI_Two_Level-L00cache.sm:213: andrew
2511961955500: system.ruby.l1_cntrl1: MESI_Two_Level-L1cache.sm:1080: 2217f80
2511961959500: system.ruby.l0_cntrl0: MESI_Two_Level-L00cache.sm:213: andrew
2511961965000: system.ruby.l1_cntrl1: MESI_Two_Level-L1cache.sm:1080: 2217fc0
2511961969000: system.ruby.l0_cntrl0: MESI_Two_Level-L00cache.sm:213: andrew
2511961988500: system.ruby.l1_cntrl1: MESI_Two_Level-L1cache.sm:1080: 2217f80
2511961992500: system.ruby.l0_cntrl0: MESI_Two_Level-L00cache.sm:213: andrew
2511961998500: system.ruby.l1_cntrl1: MESI_Two_Level-L1cache.sm:1080: 2217fc0
2511962002500: system.ruby.l0_cntrl0: MESI_Two_Level-L00cache.sm:213: andrew
2511962021500: system.ruby.l1_cntrl1: MESI_Two_Level-L1cache.sm:1080: 2217f80
2511962025500: system.ruby.l0_cntrl0: MESI_Two_Level-L00cache.sm:213: andrew
2511962031500: system.ruby.l1_cntrl1: MESI_Two_Level-L1cache.sm:1080: 2217fc0
2511962035500: system.ruby.l0_cntrl0: MESI_Two_Level-L00cache.sm:213: andrew
2511962054500: system.ruby.l1_cntrl1: MESI_Two_Level-L1cache.sm:1080: 2217f80
2511962058500: system.ruby.l0_cntrl0: MESI_Two_Level-L00cache.sm:213: andrew
2511962064500: system.ruby.l1_cntrl1: MESI_Two_Level-L1cache.sm:1080: 2217fc0
2511962068500: system.ruby.l0_cntrl0: MESI_Two_Level-L00cache.sm:213: andrew
2511962087500: system.ruby.l1_cntrl1: MESI_Two_Level-L1cache.sm:1080: 2217f80
2511962091500: system.ruby.l0_cntrl0: MESI_Two_Level-L00cache.sm:213: andrew
2511962097500: system.ruby.l1_cntrl1: MESI_Two_Level-L1cache.sm:1080: 2217fc0
2511962101500: system.ruby.l0_cntrl0: MESI_Two_Level-L00cache.sm:213: andrew
2511962120500: system.ruby.l1_cntrl1: MESI_Two_Level-L1cache.sm:1080: 2217f80
2511962124500: system.ruby.l0_cntrl0: MESI_Two_Level-L00cache.sm:213: andrew
2511962130500: system.ruby.l1_cntrl1: MESI_Two_Level-L1cache.sm:1080: 2217fc0
2511962134500: system.ruby.l0_cntrl0: MESI_Two_Level-L00cache.sm:213: andrew
2511962975500: system.ruby.l1_cntrl1: MESI_Two_Level-L1cache.sm:1080: 1a7c100
2511962979500: system.ruby.l0_cntrl0: MESI_Two_Level-L00cache.sm:213: andrew
2511963008500: system.ruby.l1_cntrl1: MESI_Two_Level-L1cache.sm:1080: 1a7c100
2511963012500: system.ruby.l0_cntrl0: MESI_Two_Level-L00cache.sm:213: andrew
2511963037500: system.ruby.l1_cntrl1: MESI_Two_Level-L1cache.sm:1080: 163c140
2511963038500: system.ruby.l1_cntrl1: MESI_Two_Level-L1cache.sm:1080: 1a7c140
2511963041500: system.ruby.l1_cntrl1: MESI_Two_Level-L1cache.sm:1080: 1a7c100
2511963041500: system.ruby.l0_cntrl0: MESI_Two_Level-L00cache.sm:213: andrew
2511963042500: system.ruby.l0_cntrl0: MESI_Two_Level-L00cache.sm:213: andrew
2511963045500: system.ruby.l0_cntrl0: MESI_Two_Level-L00cache.sm:213: andrew
2511963072000: system.ruby.l1_cntrl1: MESI_Two_Level-L1cache.sm:1080: 163c140
2511963072500: system.ruby.l1_cntrl1: MESI_Two_Level-L1cache.sm:1080: 1a7c140
2511963075000: system.ruby.l1_cntrl1: MESI_Two_Level-L1cache.sm:1080: 1a7c100
2511963076000: system.ruby.l0_cntrl0: MESI_Two_Level-L00cache.sm:213: andrew
2511963076500: system.ruby.l0_cntrl0: MESI_Two_Level-L00cache.sm:213: andrew
2511963079000: system.ruby.l0_cntrl0: MESI_Two_Level-L00cache.sm:213: andrew
2511963107000: system.ruby.l1_cntrl1: MESI_Two_Level-L1cache.sm:1080: 1a7c140
2511963109500: system.ruby.l1_cntrl1: MESI_Two_Level-L1cache.sm:1080: 1a7c100
2511963111000: system.ruby.l0_cntrl0: MESI_Two_Level-L00cache.sm:213: andrew
2511963113500: system.ruby.l0_cntrl0: MESI_Two_Level-L00cache.sm:213: andrew
2511963140000: system.ruby.l1_cntrl1: MESI_Two_Level-L1cache.sm:1080: 1a7c140
2511963142500: system.ruby.l1_cntrl1: MESI_Two_Level-L1cache.sm:1080: 1a7c100
2511963144000: system.ruby.l0_cntrl0: MESI_Two_Level-L00cache.sm:213: andrew
2511963146500: system.ruby.l0_cntrl0: MESI_Two_Level-L00cache.sm:213: andrew
2511963173000: system.ruby.l1_cntrl1: MESI_Two_Level-L1cache.sm:1080: 1a7c140
2511963175500: system.ruby.l1_cntrl1: MESI_Two_Level-L1cache.sm:1080: 1a7c100
2511963177000: system.ruby.l0_cntrl0: MESI_Two_Level-L00cache.sm:213: andrew
2511963179500: system.ruby.l0_cntrl0: MESI_Two_Level-L00cache.sm:213: andrew
2511963206000: system.ruby.l1_cntrl1: MESI_Two_Level-L1cache.sm:1080: 1a7c140
2511963210000: system.ruby.l0_cntrl0: MESI_Two_Level-L00cache.sm:213: andrew
2511963239000: system.ruby.l1_cntrl1: MESI_Two_Level-L1cache.sm:1080: 1a7c140
2511963243000: system.ruby.l0_cntrl0: MESI_Two_Level-L00cache.sm:213: andrew
2511963272000: system.ruby.l1_cntrl1: MESI_Two_Level-L1cache.sm:1080: 1a7c140
2511963276000: system.ruby.l0_cntrl0: MESI_Two_Level-L00cache.sm:213: andrew
2511963723000: system.ruby.l1_cntrl1: MESI_Two_Level-L1cache.sm:1080: 163c140
2511963727000: system.ruby.l0_cntrl0: MESI_Two_Level-L00cache.sm:213: andrew
2511963792000: system.ruby.l1_cntrl1: MESI_Two_Level-L1cache.sm:1080: 163c140
2511963796000: system.ruby.l0_cntrl0: MESI_Two_Level-L00cache.sm:213: andrew
2511963863000: system.ruby.l1_cntrl1: MESI_Two_Level-L1cache.sm:1080: 163c140
2511963867000: system.ruby.l0_cntrl0: MESI_Two_Level-L00cache.sm:213: andrew
2511963929500: system.ruby.l1_cntrl1: MESI_Two_Level-L1cache.sm:1080: 163c140
2511963933500: system.ruby.l0_cntrl0: MESI_Two_Level-L00cache.sm:213: andrew
2511964001000: system.ruby.l1_cntrl1: MESI_Two_Level-L1cache.sm:1080: 163c140
2511964005000: system.ruby.l0_cntrl0: MESI_Two_Level-L00cache.sm:213: andrew
2511964073000: system.ruby.l1_cntrl1: MESI_Two_Level-L1cache.sm:1080: 163c140
2511964077000: system.ruby.l0_cntrl0: MESI_Two_Level-L00cache.sm:213: andrew
2511964142500: system.ruby.l1_cntrl1: MESI_Two_Level-L1cache.sm:1080: 163c140
2511964146500: system.ruby.l0_cntrl0: MESI_Two_Level-L00cache.sm:213: andrew
2511964213000: system.ruby.l1_cntrl1: MESI_Two_Level-L1cache.sm:1080: 163c140
2511964217000: system.ruby.l0_cntrl0: MESI_Two_Level-L00cache.sm:213: andrew
2511964247500: system.ruby.l1_cntrl1: MESI_Two_Level-L1cache.sm:1080: 163c140
2511964251500: system.ruby.l0_cntrl0: MESI_Two_Level-L00cache.sm:213: andrew
2511964354500: system.ruby.l1_cntrl1: MESI_Two_Level-L1cache.sm:1080: 163c140
2511964358500: system.ruby.l0_cntrl0: MESI_Two_Level-L00cache.sm:213: andrew
2511964425000: system.ruby.l1_cntrl1: MESI_Two_Level-L1cache.sm:1080: 163c140
2511964429000: system.ruby.l0_cntrl0: MESI_Two_Level-L00cache.sm:213: andrew
2511964492000: system.ruby.l1_cntrl1: MESI_Two_Level-L1cache.sm:1080: 163c140
2511964496000: system.ruby.l0_cntrl0: MESI_Two_Level-L00cache.sm:213: andrew
2511964562500: system.ruby.l1_cntrl1: MESI_Two_Level-L1cache.sm:1080: 163c140
2511964566500: system.ruby.l0_cntrl0: MESI_Two_Level-L00cache.sm:213: andrew
2511964634500: system.ruby.l1_cntrl1: MESI_Two_Level-L1cache.sm:1080: 163c140
2511964638500: system.ruby.l0_cntrl0: MESI_Two_Level-L00cache.sm:213: andrew
2511964707000: system.ruby.l1_cntrl1: MESI_Two_Level-L1cache.sm:1080: 163c140
2511964711000: system.ruby.l0_cntrl0: MESI_Two_Level-L00cache.sm:213: andrew
2511964779500: system.ruby.l1_cntrl1: MESI_Two_Level-L1cache.sm:1080: 163c140
2511964783500: system.ruby.l0_cntrl0: MESI_Two_Level-L00cache.sm:213: andrew
2511964814000: system.ruby.l1_cntrl1: MESI_Two_Level-L1cache.sm:1080: 163c140
2511964818000: system.ruby.l0_cntrl0: MESI_Two_Level-L00cache.sm:213: andrew
2511964920500: system.ruby.l1_cntrl1: MESI_Two_Level-L1cache.sm:1080: 163c140
2511964924500: system.ruby.l0_cntrl0: MESI_Two_Level-L00cache.sm:213: andrew
2511965182500: system.ruby.l1_cntrl1: MESI_Two_Level-L1cache.sm:1080: 163c140
2511965186500: system.ruby.l0_cntrl0: MESI_Two_Level-L00cache.sm:213: andrew
2511965247500: system.ruby.l1_cntrl1: MESI_Two_Level-L1cache.sm:1080: 163c140
2511965251500: system.ruby.l0_cntrl0: MESI_Two_Level-L00cache.sm:213: andrew
2511965318000: system.ruby.l1_cntrl1: MESI_Two_Level-L1cache.sm:1080: 163c140
2511965322000: system.ruby.l0_cntrl0: MESI_Two_Level-L00cache.sm:213: andrew
2511965390000: system.ruby.l1_cntrl1: MESI_Two_Level-L1cache.sm:1080: 163c140
2511965394000: system.ruby.l0_cntrl0: MESI_Two_Level-L00cache.sm:213: andrew
2511965462500: system.ruby.l1_cntrl1: MESI_Two_Level-L1cache.sm:1080: 163c140
2511965466500: system.ruby.l0_cntrl0: MESI_Two_Level-L00cache.sm:213: andrew
2511965535000: system.ruby.l1_cntrl1: MESI_Two_Level-L1cache.sm:1080: 163c140
2511965539000: system.ruby.l0_cntrl0: MESI_Two_Level-L00cache.sm:213: andrew
2511965569500: system.ruby.l1_cntrl1: MESI_Two_Level-L1cache.sm:1080: 163c140
2511965573500: system.ruby.l0_cntrl0: MESI_Two_Level-L00cache.sm:213: andrew
2511965678500: system.ruby.l1_cntrl1: MESI_Two_Level-L1cache.sm:1080: 163c140
2511965682500: system.ruby.l0_cntrl0: MESI_Two_Level-L00cache.sm:213: andrew
2511965749500: system.ruby.l1_cntrl1: MESI_Two_Level-L1cache.sm:1080: 163c140
2511965753500: system.ruby.l0_cntrl0: MESI_Two_Level-L00cache.sm:213: andrew
2511965816500: system.ruby.l1_cntrl1: MESI_Two_Level-L1cache.sm:1080: 163c140
2511965820500: system.ruby.l0_cntrl0: MESI_Two_Level-L00cache.sm:213: andrew
2511965887000: system.ruby.l1_cntrl1: MESI_Two_Level-L1cache.sm:1080: 163c140
2511965891000: system.ruby.l0_cntrl0: MESI_Two_Level-L00cache.sm:213: andrew
2511965959000: system.ruby.l1_cntrl1: MESI_Two_Level-L1cache.sm:1080: 163c140
2511965963000: system.ruby.l0_cntrl0: MESI_Two_Level-L00cache.sm:213: andrew
2511966031500: system.ruby.l1_cntrl1: MESI_Two_Level-L1cache.sm:1080: 163c140
2511966035500: system.ruby.l0_cntrl0: MESI_Two_Level-L00cache.sm:213: andrew
2511966115000: system.ruby.l1_cntrl1: MESI_Two_Level-L1cache.sm:1080: 163c140
2511966119000: system.ruby.l0_cntrl0: MESI_Two_Level-L00cache.sm:213: andrew
2511966149500: system.ruby.l1_cntrl1: MESI_Two_Level-L1cache.sm:1080: 163c140
2511966153500: system.ruby.l0_cntrl0: MESI_Two_Level-L00cache.sm:213: andrew
2511966258500: system.ruby.l1_cntrl1: MESI_Two_Level-L1cache.sm:1080: 163c140
2511966262500: system.ruby.l0_cntrl0: MESI_Two_Level-L00cache.sm:213: andrew
2511966329500: system.ruby.l1_cntrl1: MESI_Two_Level-L1cache.sm:1080: 163c140
2511966333500: system.ruby.l0_cntrl0: MESI_Two_Level-L00cache.sm:213: andrew
2511966396500: system.ruby.l1_cntrl1: MESI_Two_Level-L1cache.sm:1080: 163c140
2511966400500: system.ruby.l0_cntrl0: MESI_Two_Level-L00cache.sm:213: andrew
2511966467000: system.ruby.l1_cntrl1: MESI_Two_Level-L1cache.sm:1080: 163c140
2511966471000: system.ruby.l0_cntrl0: MESI_Two_Level-L00cache.sm:213: andrew
2511966539000: system.ruby.l1_cntrl1: MESI_Two_Level-L1cache.sm:1080: 163c140
2511966543000: system.ruby.l0_cntrl0: MESI_Two_Level-L00cache.sm:213: andrew
2511966611500: system.ruby.l1_cntrl1: MESI_Two_Level-L1cache.sm:1080: 163c140
2511966615500: system.ruby.l0_cntrl0: MESI_Two_Level-L00cache.sm:213: andrew
2511966684000: system.ruby.l1_cntrl1: MESI_Two_Level-L1cache.sm:1080: 163c140
2511966688000: system.ruby.l0_cntrl0: MESI_Two_Level-L00cache.sm:213: andrew
2511966718500: system.ruby.l1_cntrl1: MESI_Two_Level-L1cache.sm:1080: 163c140
2511966722500: system.ruby.l0_cntrl0: MESI_Two_Level-L00cache.sm:213: andrew
2511966823000: system.ruby.l1_cntrl1: MESI_Two_Level-L1cache.sm:1080: 163c140
2511966827000: system.ruby.l0_cntrl0: MESI_Two_Level-L00cache.sm:213: andrew
2511966894000: system.ruby.l1_cntrl1: MESI_Two_Level-L1cache.sm:1080: 163c140
2511966898000: system.ruby.l0_cntrl0: MESI_Two_Level-L00cache.sm:213: andrew
2511966961000: system.ruby.l1_cntrl1: MESI_Two_Level-L1cache.sm:1080: 163c140
2511966965000: system.ruby.l0_cntrl0: MESI_Two_Level-L00cache.sm:213: andrew
2511967031500: system.ruby.l1_cntrl1: MESI_Two_Level-L1cache.sm:1080: 163c140
2511967035500: system.ruby.l0_cntrl0: MESI_Two_Level-L00cache.sm:213: andrew
2511967103500: system.ruby.l1_cntrl1: MESI_Two_Level-L1cache.sm:1080: 163c140
2511967107500: system.ruby.l0_cntrl0: MESI_Two_Level-L00cache.sm:213: andrew
2511967176000: system.ruby.l1_cntrl1: MESI_Two_Level-L1cache.sm:1080: 163c140
2511967180000: system.ruby.l0_cntrl0: MESI_Two_Level-L00cache.sm:213: andrew
2511967246000: system.ruby.l1_cntrl1: MESI_Two_Level-L1cache.sm:1080: 163c140
2511967250000: system.ruby.l0_cntrl0: MESI_Two_Level-L00cache.sm:213: andrew
2511967280500: system.ruby.l1_cntrl1: MESI_Two_Level-L1cache.sm:1080: 163c140
2511967284500: system.ruby.l0_cntrl0: MESI_Two_Level-L00cache.sm:213: andrew
2511967389500: system.ruby.l1_cntrl1: MESI_Two_Level-L1cache.sm:1080: 163c140
2511967393500: system.ruby.l0_cntrl0: MESI_Two_Level-L00cache.sm:213: andrew
2511967472000: system.ruby.l1_cntrl1: MESI_Two_Level-L1cache.sm:1080: 163c140
2511967476000: system.ruby.l0_cntrl0: MESI_Two_Level-L00cache.sm:213: andrew
2511967537000: system.ruby.l1_cntrl1: MESI_Two_Level-L1cache.sm:1080: 163c140
2511967541000: system.ruby.l0_cntrl0: MESI_Two_Level-L00cache.sm:213: andrew
2511967605500: system.ruby.l1_cntrl1: MESI_Two_Level-L1cache.sm:1080: 163c140
2511967609500: system.ruby.l0_cntrl0: MESI_Two_Level-L00cache.sm:213: andrew
2511967822500: system.ruby.l1_cntrl1: MESI_Two_Level-L1cache.sm:1080: 115c400
2511967826500: system.ruby.l0_cntrl0: MESI_Two_Level-L00cache.sm:213: andrew
2511967892500: system.ruby.l1_cntrl1: MESI_Two_Level-L1cache.sm:1080: 115c440
2511967896500: system.ruby.l0_cntrl0: MESI_Two_Level-L00cache.sm:213: andrew
2511967961500: system.ruby.l1_cntrl1: MESI_Two_Level-L1cache.sm:1080: 115c480
2511967965500: system.ruby.l0_cntrl0: MESI_Two_Level-L00cache.sm:213: andrew
2511968027000: system.ruby.l1_cntrl1: MESI_Two_Level-L1cache.sm:1080: 115c480
2511968031000: system.ruby.l0_cntrl0: MESI_Two_Level-L00cache.sm:213: andrew
2511968060500: system.ruby.l1_cntrl1: MESI_Two_Level-L1cache.sm:1080: 115c4c0
2511968064500: system.ruby.l0_cntrl0: MESI_Two_Level-L00cache.sm:213: andrew
2511968367000: system.ruby.l1_cntrl1: MESI_Two_Level-L1cache.sm:1080: 7cb860c0
2511968371000: system.ruby.l0_cntrl0: MESI_Two_Level-L00cache.sm:213: andrew
2511968940500: system.ruby.l1_cntrl1: MESI_Two_Level-L1cache.sm:1060: 2217fc0
2511968944500: system.ruby.l0_cntrl0: MESI_Two_Level-L00cache.sm:213: andrew
2511968973000: system.ruby.l1_cntrl1: MESI_Two_Level-L1cache.sm:1080: 2217fc0
2511968977000: system.ruby.l0_cntrl0: MESI_Two_Level-L00cache.sm:213: andrew
2511969006000: system.ruby.l1_cntrl1: MESI_Two_Level-L1cache.sm:1080: 2217fc0
2511969010000: system.ruby.l0_cntrl0: MESI_Two_Level-L00cache.sm:213: andrew
2511969039000: system.ruby.l1_cntrl1: MESI_Two_Level-L1cache.sm:1080: 2217fc0
2511969043000: system.ruby.l0_cntrl0: MESI_Two_Level-L00cache.sm:213: andrew
2511969072000: system.ruby.l1_cntrl1: MESI_Two_Level-L1cache.sm:1080: 2217fc0
2511969076000: system.ruby.l0_cntrl0: MESI_Two_Level-L00cache.sm:213: andrew
2511969105000: system.ruby.l1_cntrl1: MESI_Two_Level-L1cache.sm:1080: 2217fc0
2511969109000: system.ruby.l0_cntrl0: MESI_Two_Level-L00cache.sm:213: andrew
2511969138000: system.ruby.l1_cntrl1: MESI_Two_Level-L1cache.sm:1080: 2217fc0
2511969142000: system.ruby.l0_cntrl0: MESI_Two_Level-L00cache.sm:213: andrew
2511969171000: system.ruby.l1_cntrl1: MESI_Two_Level-L1cache.sm:1080: 2217fc0
2511969175000: system.ruby.l0_cntrl0: MESI_Two_Level-L00cache.sm:213: andrew
2511971089500: system.ruby.l1_cntrl1: MESI_Two_Level-L1cache.sm:1080: 163c100
2511971093500: system.ruby.l0_cntrl0: MESI_Two_Level-L00cache.sm:213: andrew
2511971122000: system.ruby.l1_cntrl1: MESI_Two_Level-L1cache.sm:1080: 163c100
2511971126000: system.ruby.l0_cntrl0: MESI_Two_Level-L00cache.sm:213: andrew
2511971155500: system.ruby.l1_cntrl1: MESI_Two_Level-L1cache.sm:1080: 163c140
2511971159500: system.ruby.l0_cntrl0: MESI_Two_Level-L00cache.sm:213: andrew
2511971190000: system.ruby.l1_cntrl1: MESI_Two_Level-L1cache.sm:1080: 163c140
2511971194000: system.ruby.l0_cntrl0: MESI_Two_Level-L00cache.sm:213: andrew
2511971224500: system.ruby.l1_cntrl1: MESI_Two_Level-L1cache.sm:1080: 163c140
2511971228500: system.ruby.l0_cntrl0: MESI_Two_Level-L00cache.sm:213: andrew
2511971259000: system.ruby.l1_cntrl1: MESI_Two_Level-L1cache.sm:1080: 163c140
2511971263000: system.ruby.l0_cntrl0: MESI_Two_Level-L00cache.sm:213: andrew
2511971293500: system.ruby.l1_cntrl1: MESI_Two_Level-L1cache.sm:1080: 163c140
2511971297500: system.ruby.l0_cntrl0: MESI_Two_Level-L00cache.sm:213: andrew
2511971328000: system.ruby.l1_cntrl1: MESI_Two_Level-L1cache.sm:1080: 163c140
2511971332000: system.ruby.l0_cntrl0: MESI_Two_Level-L00cache.sm:213: andrew
2511971362500: system.ruby.l1_cntrl1: MESI_Two_Level-L1cache.sm:1080: 163c140
2511971366500: system.ruby.l0_cntrl0: MESI_Two_Level-L00cache.sm:213: andrew
2511971397000: system.ruby.l1_cntrl1: MESI_Two_Level-L1cache.sm:1080: 163c140
2511971401000: system.ruby.l0_cntrl0: MESI_Two_Level-L00cache.sm:213: andrew
2511971431500: system.ruby.l1_cntrl1: MESI_Two_Level-L1cache.sm:1080: 163c140
2511971435500: system.ruby.l0_cntrl0: MESI_Two_Level-L00cache.sm:213: andrew
2511971483000: system.ruby.l1_cntrl1: MESI_Two_Level-L1cache.sm:1080: 163c140
2511971487000: system.ruby.l0_cntrl0: MESI_Two_Level-L00cache.sm:213: andrew
2511971552000: system.ruby.l1_cntrl1: MESI_Two_Level-L1cache.sm:1080: 163c140
2511971556000: system.ruby.l0_cntrl0: MESI_Two_Level-L00cache.sm:213: andrew
2511971624500: system.ruby.l1_cntrl1: MESI_Two_Level-L1cache.sm:1080: 163c140
2511971628500: system.ruby.l0_cntrl0: MESI_Two_Level-L00cache.sm:213: andrew
2511971659000: system.ruby.l1_cntrl1: MESI_Two_Level-L1cache.sm:1080: 163c140
2511971663000: system.ruby.l0_cntrl0: MESI_Two_Level-L00cache.sm:213: andrew
2511971768000: system.ruby.l1_cntrl1: MESI_Two_Level-L1cache.sm:1080: 163c140
2511971772000: system.ruby.l0_cntrl0: MESI_Two_Level-L00cache.sm:213: andrew
2511971837000: system.ruby.l1_cntrl1: MESI_Two_Level-L1cache.sm:1080: 163c140
2511971841000: system.ruby.l0_cntrl0: MESI_Two_Level-L00cache.sm:213: andrew
2511971902000: system.ruby.l1_cntrl1: MESI_Two_Level-L1cache.sm:1080: 163c140
2511971906000: system.ruby.l0_cntrl0: MESI_Two_Level-L00cache.sm:213: andrew
2511971972500: system.ruby.l1_cntrl1: MESI_Two_Level-L1cache.sm:1080: 163c140
2511971976500: system.ruby.l0_cntrl0: MESI_Two_Level-L00cache.sm:213: andrew
2511972044500: system.ruby.l1_cntrl1: MESI_Two_Level-L1cache.sm:1080: 163c140
2511972048500: system.ruby.l0_cntrl0: MESI_Two_Level-L00cache.sm:213: andrew
2511972117000: system.ruby.l1_cntrl1: MESI_Two_Level-L1cache.sm:1080: 163c140
2511972121000: system.ruby.l0_cntrl0: MESI_Two_Level-L00cache.sm:213: andrew
2511972189500: system.ruby.l1_cntrl1: MESI_Two_Level-L1cache.sm:1080: 163c140
2511972193500: system.ruby.l0_cntrl0: MESI_Two_Level-L00cache.sm:213: andrew
2511972224000: system.ruby.l1_cntrl1: MESI_Two_Level-L1cache.sm:1080: 163c140
2511972228000: system.ruby.l0_cntrl0: MESI_Two_Level-L00cache.sm:213: andrew
2511972333000: system.ruby.l1_cntrl1: MESI_Two_Level-L1cache.sm:1080: 163c140
2511972337000: system.ruby.l0_cntrl0: MESI_Two_Level-L00cache.sm:213: andrew
2511972404000: system.ruby.l1_cntrl1: MESI_Two_Level-L1cache.sm:1080: 163c140
2511972408000: system.ruby.l0_cntrl0: MESI_Two_Level-L00cache.sm:213: andrew
2511972471000: system.ruby.l1_cntrl1: MESI_Two_Level-L1cache.sm:1080: 163c140
2511972475000: system.ruby.l0_cntrl0: MESI_Two_Level-L00cache.sm:213: andrew
2511972541500: system.ruby.l1_cntrl1: MESI_Two_Level-L1cache.sm:1080: 163c140
2511972545500: system.ruby.l0_cntrl0: MESI_Two_Level-L00cache.sm:213: andrew
2511972611500: system.ruby.l1_cntrl1: MESI_Two_Level-L1cache.sm:1080: 163c140
2511972615500: system.ruby.l0_cntrl0: MESI_Two_Level-L00cache.sm:213: andrew
2511972684000: system.ruby.l1_cntrl1: MESI_Two_Level-L1cache.sm:1080: 163c140
2511972688000: system.ruby.l0_cntrl0: MESI_Two_Level-L00cache.sm:213: andrew
2511972756500: system.ruby.l1_cntrl1: MESI_Two_Level-L1cache.sm:1080: 163c140
2511972760500: system.ruby.l0_cntrl0: MESI_Two_Level-L00cache.sm:213: andrew
2511972791000: system.ruby.l1_cntrl1: MESI_Two_Level-L1cache.sm:1080: 163c140
2511972795000: system.ruby.l0_cntrl0: MESI_Two_Level-L00cache.sm:213: andrew
2511972900000: system.ruby.l1_cntrl1: MESI_Two_Level-L1cache.sm:1080: 163c140
2511972904000: system.ruby.l0_cntrl0: MESI_Two_Level-L00cache.sm:213: andrew
2511972971000: system.ruby.l1_cntrl1: MESI_Two_Level-L1cache.sm:1080: 163c140
2511972975000: system.ruby.l0_cntrl0: MESI_Two_Level-L00cache.sm:213: andrew
2511973038000: system.ruby.l1_cntrl1: MESI_Two_Level-L1cache.sm:1080: 163c140
2511973042000: system.ruby.l0_cntrl0: MESI_Two_Level-L00cache.sm:213: andrew
2511973108500: system.ruby.l1_cntrl1: MESI_Two_Level-L1cache.sm:1080: 163c140
2511973112500: system.ruby.l0_cntrl0: MESI_Two_Level-L00cache.sm:213: andrew
2511973180500: system.ruby.l1_cntrl1: MESI_Two_Level-L1cache.sm:1080: 163c140
2511973184500: system.ruby.l0_cntrl0: MESI_Two_Level-L00cache.sm:213: andrew
2511973253000: system.ruby.l1_cntrl1: MESI_Two_Level-L1cache.sm:1080: 163c140
2511973257000: system.ruby.l0_cntrl0: MESI_Two_Level-L00cache.sm:213: andrew
2511973325500: system.ruby.l1_cntrl1: MESI_Two_Level-L1cache.sm:1080: 163c140
2511973329500: system.ruby.l0_cntrl0: MESI_Two_Level-L00cache.sm:213: andrew
2511973360000: system.ruby.l1_cntrl1: MESI_Two_Level-L1cache.sm:1080: 163c140
2511973364000: system.ruby.l0_cntrl0: MESI_Two_Level-L00cache.sm:213: andrew
2511973469000: system.ruby.l1_cntrl1: MESI_Two_Level-L1cache.sm:1080: 163c140
2511973473000: system.ruby.l0_cntrl0: MESI_Two_Level-L00cache.sm:213: andrew
2511973703000: system.ruby.l1_cntrl1: MESI_Two_Level-L1cache.sm:1080: 163c140
2511973707000: system.ruby.l0_cntrl0: MESI_Two_Level-L00cache.sm:213: andrew
2511974315000: system.ruby.l1_cntrl1: MESI_Two_Level-L1cache.sm:1080: 163c140
2511974319000: system.ruby.l0_cntrl0: MESI_Two_Level-L00cache.sm:213: andrew
2511974383500: system.ruby.l1_cntrl1: MESI_Two_Level-L1cache.sm:1080: 163c140
2511974387500: system.ruby.l0_cntrl0: MESI_Two_Level-L00cache.sm:213: andrew
2511974455500: system.ruby.l1_cntrl1: MESI_Two_Level-L1cache.sm:1080: 163c140
2511974459500: system.ruby.l0_cntrl0: MESI_Two_Level-L00cache.sm:213: andrew
2511974528000: system.ruby.l1_cntrl1: MESI_Two_Level-L1cache.sm:1080: 163c140
2511974532000: system.ruby.l0_cntrl0: MESI_Two_Level-L00cache.sm:213: andrew
2511974600500: system.ruby.l1_cntrl1: MESI_Two_Level-L1cache.sm:1080: 163c140
2511974604500: system.ruby.l0_cntrl0: MESI_Two_Level-L00cache.sm:213: andrew
2511974635000: system.ruby.l1_cntrl1: MESI_Two_Level-L1cache.sm:1080: 163c140
2511974639000: system.ruby.l0_cntrl0: MESI_Two_Level-L00cache.sm:213: andrew
2511974744000: system.ruby.l1_cntrl1: MESI_Two_Level-L1cache.sm:1080: 163c140
2511974748000: system.ruby.l0_cntrl0: MESI_Two_Level-L00cache.sm:213: andrew
2511974813000: system.ruby.l1_cntrl1: MESI_Two_Level-L1cache.sm:1080: 163c140
2511974817000: system.ruby.l0_cntrl0: MESI_Two_Level-L00cache.sm:213: andrew
2511974880000: system.ruby.l1_cntrl1: MESI_Two_Level-L1cache.sm:1080: 163c140
2511974884000: system.ruby.l0_cntrl0: MESI_Two_Level-L00cache.sm:213: andrew
2511974950500: system.ruby.l1_cntrl1: MESI_Two_Level-L1cache.sm:1080: 163c140
2511974954500: system.ruby.l0_cntrl0: MESI_Two_Level-L00cache.sm:213: andrew
2511975022500: system.ruby.l1_cntrl1: MESI_Two_Level-L1cache.sm:1080: 163c140
2511975026500: system.ruby.l0_cntrl0: MESI_Two_Level-L00cache.sm:213: andrew
2511975095000: system.ruby.l1_cntrl1: MESI_Two_Level-L1cache.sm:1080: 163c140
2511975099000: system.ruby.l0_cntrl0: MESI_Two_Level-L00cache.sm:213: andrew
2511975167500: system.ruby.l1_cntrl1: MESI_Two_Level-L1cache.sm:1080: 163c140
2511975171500: system.ruby.l0_cntrl0: MESI_Two_Level-L00cache.sm:213: andrew
2511975202000: system.ruby.l1_cntrl1: MESI_Two_Level-L1cache.sm:1080: 163c140
2511975206000: system.ruby.l0_cntrl0: MESI_Two_Level-L00cache.sm:213: andrew
2511975311000: system.ruby.l1_cntrl1: MESI_Two_Level-L1cache.sm:1080: 163c140
2511975315000: system.ruby.l0_cntrl0: MESI_Two_Level-L00cache.sm:213: andrew
2511975382000: system.ruby.l1_cntrl1: MESI_Two_Level-L1cache.sm:1080: 163c140
2511975386000: system.ruby.l0_cntrl0: MESI_Two_Level-L00cache.sm:213: andrew
2511975449000: system.ruby.l1_cntrl1: MESI_Two_Level-L1cache.sm:1080: 163c140
2511975453000: system.ruby.l0_cntrl0: MESI_Two_Level-L00cache.sm:213: andrew
2511975519500: system.ruby.l1_cntrl1: MESI_Two_Level-L1cache.sm:1080: 163c140
2511975523500: system.ruby.l0_cntrl0: MESI_Two_Level-L00cache.sm:213: andrew
2511975591500: system.ruby.l1_cntrl1: MESI_Two_Level-L1cache.sm:1080: 163c140
2511975595500: system.ruby.l0_cntrl0: MESI_Two_Level-L00cache.sm:213: andrew
2511975662000: system.ruby.l1_cntrl1: MESI_Two_Level-L1cache.sm:1080: 163c140
2511975666000: system.ruby.l0_cntrl0: MESI_Two_Level-L00cache.sm:213: andrew
2511975732000: system.ruby.l1_cntrl1: MESI_Two_Level-L1cache.sm:1080: 163c140
2511975736000: system.ruby.l0_cntrl0: MESI_Two_Level-L00cache.sm:213: andrew
2511975766500: system.ruby.l1_cntrl1: MESI_Two_Level-L1cache.sm:1080: 163c140
2511975770500: system.ruby.l0_cntrl0: MESI_Two_Level-L00cache.sm:213: andrew
2511975875500: system.ruby.l1_cntrl1: MESI_Two_Level-L1cache.sm:1080: 163c140
2511975879500: system.ruby.l0_cntrl0: MESI_Two_Level-L00cache.sm:213: andrew
2511975948000: system.ruby.l1_cntrl1: MESI_Two_Level-L1cache.sm:1080: 115c400
2511975952000: system.ruby.l0_cntrl0: MESI_Two_Level-L00cache.sm:213: andrew
2511976086000: system.ruby.l1_cntrl1: MESI_Two_Level-L1cache.sm:1080: 115c440
2511976090000: system.ruby.l0_cntrl0: MESI_Two_Level-L00cache.sm:213: andrew
2511976157500: system.ruby.l1_cntrl1: MESI_Two_Level-L1cache.sm:1080: 115c400
2511976161500: system.ruby.l0_cntrl0: MESI_Two_Level-L00cache.sm:213: andrew
2511976191500: system.ruby.l1_cntrl1: MESI_Two_Level-L1cache.sm:1080: 115c440
2511976195500: system.ruby.l0_cntrl0: MESI_Two_Level-L00cache.sm:213: andrew
2511976227500: system.ruby.l1_cntrl1: MESI_Two_Level-L1cache.sm:1080: 115c480
2511976231500: system.ruby.l0_cntrl0: MESI_Two_Level-L00cache.sm:213: andrew
2511976291000: system.ruby.l1_cntrl1: MESI_Two_Level-L1cache.sm:1080: 115c4c0
2511976295000: system.ruby.l0_cntrl0: MESI_Two_Level-L00cache.sm:213: andrew
2511976536000: system.ruby.l1_cntrl1: MESI_Two_Level-L1cache.sm:1080: 115c480
2511976540000: system.ruby.l0_cntrl0: MESI_Two_Level-L00cache.sm:213: andrew
2511976569500: system.ruby.l1_cntrl1: MESI_Two_Level-L1cache.sm:1080: 115c4c0
2511976573500: system.ruby.l0_cntrl0: MESI_Two_Level-L00cache.sm:213: andrew
2511976730500: system.ruby.l1_cntrl1: MESI_Two_Level-L1cache.sm:1080: 7cb860c0
2511976734500: system.ruby.l0_cntrl0: MESI_Two_Level-L00cache.sm:213: andrew
2511978444000: system.ruby.l1_cntrl1: MESI_Two_Level-L1cache.sm:1060: 221c400
2511978448000: system.ruby.l0_cntrl0: MESI_Two_Level-L00cache.sm:213: andrew
2511978450500: system.ruby.l1_cntrl1: MESI_Two_Level-L1cache.sm:1060: 221c440
2511978454500: system.ruby.l0_cntrl0: MESI_Two_Level-L00cache.sm:213: andrew
2511978461000: system.ruby.l1_cntrl1: MESI_Two_Level-L1cache.sm:1060: 221c480
2511978465000: system.ruby.l0_cntrl0: MESI_Two_Level-L00cache.sm:213: andrew
2511978477000: system.ruby.l1_cntrl1: MESI_Two_Level-L1cache.sm:1080: 221c400
2511978481000: system.ruby.l0_cntrl0: MESI_Two_Level-L00cache.sm:213: andrew
2511978484000: system.ruby.l1_cntrl1: MESI_Two_Level-L1cache.sm:1080: 221c440
2511978488000: system.ruby.l0_cntrl0: MESI_Two_Level-L00cache.sm:213: andrew
2511978495500: system.ruby.l1_cntrl1: MESI_Two_Level-L1cache.sm:1080: 221c480
2511978499500: system.ruby.l0_cntrl0: MESI_Two_Level-L00cache.sm:213: andrew
2511978510000: system.ruby.l1_cntrl1: MESI_Two_Level-L1cache.sm:1080: 221c400
2511978514000: system.ruby.l0_cntrl0: MESI_Two_Level-L00cache.sm:213: andrew
2511978517500: system.ruby.l1_cntrl1: MESI_Two_Level-L1cache.sm:1080: 221c440
2511978521500: system.ruby.l0_cntrl0: MESI_Two_Level-L00cache.sm:213: andrew
2511978529500: system.ruby.l1_cntrl1: MESI_Two_Level-L1cache.sm:1080: 221c480
2511978533500: system.ruby.l0_cntrl0: MESI_Two_Level-L00cache.sm:213: andrew
2511978543000: system.ruby.l1_cntrl1: MESI_Two_Level-L1cache.sm:1080: 221c400
2511978547000: system.ruby.l0_cntrl0: MESI_Two_Level-L00cache.sm:213: andrew
2511978551000: system.ruby.l1_cntrl1: MESI_Two_Level-L1cache.sm:1080: 221c440
2511978555000: system.ruby.l0_cntrl0: MESI_Two_Level-L00cache.sm:213: andrew
2511978563500: system.ruby.l1_cntrl1: MESI_Two_Level-L1cache.sm:1080: 221c480
2511978567500: system.ruby.l0_cntrl0: MESI_Two_Level-L00cache.sm:213: andrew
2511978576000: system.ruby.l1_cntrl1: MESI_Two_Level-L1cache.sm:1080: 221c400
2511978577500: system.ruby.l1_cntrl1: MESI_Two_Level-L1cache.sm:1060: 221c4c0
2511978580000: system.ruby.l0_cntrl0: MESI_Two_Level-L00cache.sm:213: andrew
2511978581500: system.ruby.l0_cntrl0: MESI_Two_Level-L00cache.sm:213: andrew
2511978584000: system.ruby.l1_cntrl1: MESI_Two_Level-L1cache.sm:1080: 221c440
2511978588000: system.ruby.l0_cntrl0: MESI_Two_Level-L00cache.sm:213: andrew
2511978597000: system.ruby.l1_cntrl1: MESI_Two_Level-L1cache.sm:1080: 221c480
2511978601000: system.ruby.l0_cntrl0: MESI_Two_Level-L00cache.sm:213: andrew
2511978609000: system.ruby.l1_cntrl1: MESI_Two_Level-L1cache.sm:1080: 221c400
2511978612000: system.ruby.l1_cntrl1: MESI_Two_Level-L1cache.sm:1080: 221c4c0
2511978613000: system.ruby.l0_cntrl0: MESI_Two_Level-L00cache.sm:213: andrew
2511978616000: system.ruby.l0_cntrl0: MESI_Two_Level-L00cache.sm:213: andrew
2511978617000: system.ruby.l1_cntrl1: MESI_Two_Level-L1cache.sm:1080: 221c440
2511978621000: system.ruby.l0_cntrl0: MESI_Two_Level-L00cache.sm:213: andrew
2511978630500: system.ruby.l1_cntrl1: MESI_Two_Level-L1cache.sm:1080: 221c480
2511978634500: system.ruby.l0_cntrl0: MESI_Two_Level-L00cache.sm:213: andrew
2511978642000: system.ruby.l1_cntrl1: MESI_Two_Level-L1cache.sm:1080: 221c400
2511978645500: system.ruby.l1_cntrl1: MESI_Two_Level-L1cache.sm:1080: 221c4c0
2511978646000: system.ruby.l0_cntrl0: MESI_Two_Level-L00cache.sm:213: andrew
2511978649500: system.ruby.l1_cntrl1: MESI_Two_Level-L1cache.sm:1080: 221c440
2511978649500: system.ruby.l0_cntrl0: MESI_Two_Level-L00cache.sm:213: andrew
2511978653500: system.ruby.l0_cntrl0: MESI_Two_Level-L00cache.sm:213: andrew
2511978663500: system.ruby.l1_cntrl1: MESI_Two_Level-L1cache.sm:1080: 221c480
2511978667500: system.ruby.l0_cntrl0: MESI_Two_Level-L00cache.sm:213: andrew
2511978675000: system.ruby.l1_cntrl1: MESI_Two_Level-L1cache.sm:1080: 221c400
2511978678000: system.ruby.l1_cntrl1: MESI_Two_Level-L1cache.sm:1080: 221c4c0
2511978679000: system.ruby.l0_cntrl0: MESI_Two_Level-L00cache.sm:213: andrew
2511978682000: system.ruby.l0_cntrl0: MESI_Two_Level-L00cache.sm:213: andrew
2511978682500: system.ruby.l1_cntrl1: MESI_Two_Level-L1cache.sm:1080: 221c440
2511978686500: system.ruby.l0_cntrl0: MESI_Two_Level-L00cache.sm:213: andrew
2511978696500: system.ruby.l1_cntrl1: MESI_Two_Level-L1cache.sm:1080: 221c480
2511978700500: system.ruby.l0_cntrl0: MESI_Two_Level-L00cache.sm:213: andrew
2511978711000: system.ruby.l1_cntrl1: MESI_Two_Level-L1cache.sm:1080: 221c4c0
2511978715000: system.ruby.l0_cntrl0: MESI_Two_Level-L00cache.sm:213: andrew
2511978744000: system.ruby.l1_cntrl1: MESI_Two_Level-L1cache.sm:1080: 221c4c0
2511978748000: system.ruby.l0_cntrl0: MESI_Two_Level-L00cache.sm:213: andrew
2511978777000: system.ruby.l1_cntrl1: MESI_Two_Level-L1cache.sm:1080: 221c4c0
2511978781000: system.ruby.l0_cntrl0: MESI_Two_Level-L00cache.sm:213: andrew
2511978810000: system.ruby.l1_cntrl1: MESI_Two_Level-L1cache.sm:1080: 221c4c0
2511978814000: system.ruby.l0_cntrl0: MESI_Two_Level-L00cache.sm:213: andrew
2511984849500: system.ruby.l1_cntrl1: MESI_Two_Level-L1cache.sm:1060: 2210e80
2511984853500: system.ruby.l0_cntrl0: MESI_Two_Level-L00cache.sm:213: andrew
2511984882500: system.ruby.l1_cntrl1: MESI_Two_Level-L1cache.sm:1080: 2210e80
2511984886500: system.ruby.l0_cntrl0: MESI_Two_Level-L00cache.sm:213: andrew
2511984915500: system.ruby.l1_cntrl1: MESI_Two_Level-L1cache.sm:1080: 2210e80
2511984919500: system.ruby.l0_cntrl0: MESI_Two_Level-L00cache.sm:213: andrew
2511984948500: system.ruby.l1_cntrl1: MESI_Two_Level-L1cache.sm:1080: 2210e80
2511984952500: system.ruby.l0_cntrl0: MESI_Two_Level-L00cache.sm:213: andrew
2511984981500: system.ruby.l1_cntrl1: MESI_Two_Level-L1cache.sm:1080: 2210e80
2511984985500: system.ruby.l0_cntrl0: MESI_Two_Level-L00cache.sm:213: andrew
2511985014500: system.ruby.l1_cntrl1: MESI_Two_Level-L1cache.sm:1080: 2210e80
2511985018500: system.ruby.l0_cntrl0: MESI_Two_Level-L00cache.sm:213: andrew
2511985047500: system.ruby.l1_cntrl1: MESI_Two_Level-L1cache.sm:1080: 2210e80
2511985051500: system.ruby.l0_cntrl0: MESI_Two_Level-L00cache.sm:213: andrew
2511985080500: system.ruby.l1_cntrl1: MESI_Two_Level-L1cache.sm:1080: 2210e80
2511985084500: system.ruby.l0_cntrl0: MESI_Two_Level-L00cache.sm:213: andrew
2511985113500: system.ruby.l1_cntrl1: MESI_Two_Level-L1cache.sm:1080: 2210e80
2511985117500: system.ruby.l0_cntrl0: MESI_Two_Level-L00cache.sm:213: andrew
2511985146500: system.ruby.l1_cntrl1: MESI_Two_Level-L1cache.sm:1080: 2210e80
2511985150500: system.ruby.l0_cntrl0: MESI_Two_Level-L00cache.sm:213: andrew
2511985160000: system.ruby.l1_cntrl1: MESI_Two_Level-L1cache.sm:1060: 2210ec0
2511985164000: system.ruby.l0_cntrl0: MESI_Two_Level-L00cache.sm:213: andrew
2511985179500: system.ruby.l1_cntrl1: MESI_Two_Level-L1cache.sm:1080: 2210e80
2511985183500: system.ruby.l0_cntrl0: MESI_Two_Level-L00cache.sm:213: andrew
2511992387500: system.ruby.l1_cntrl1: MESI_Two_Level-L1cache.sm:1060: 2213900
2511992391500: system.ruby.l0_cntrl0: MESI_Two_Level-L00cache.sm:213: andrew
2511992420500: system.ruby.l1_cntrl1: MESI_Two_Level-L1cache.sm:1080: 2213900
2511992424500: system.ruby.l0_cntrl0: MESI_Two_Level-L00cache.sm:213: andrew
2511992453500: system.ruby.l1_cntrl1: MESI_Two_Level-L1cache.sm:1080: 2213900
2511992457500: system.ruby.l0_cntrl0: MESI_Two_Level-L00cache.sm:213: andrew
2511992486500: system.ruby.l1_cntrl1: MESI_Two_Level-L1cache.sm:1080: 2213900
2511992490500: system.ruby.l0_cntrl0: MESI_Two_Level-L00cache.sm:213: andrew
2511992519500: system.ruby.l1_cntrl1: MESI_Two_Level-L1cache.sm:1080: 2213900
2511992523500: system.ruby.l0_cntrl0: MESI_Two_Level-L00cache.sm:213: andrew
2511992552500: system.ruby.l1_cntrl1: MESI_Two_Level-L1cache.sm:1080: 2213900
2511992556500: system.ruby.l0_cntrl0: MESI_Two_Level-L00cache.sm:213: andrew
2511992585500: system.ruby.l1_cntrl1: MESI_Two_Level-L1cache.sm:1080: 2213900
2511992589500: system.ruby.l0_cntrl0: MESI_Two_Level-L00cache.sm:213: andrew
2511992618500: system.ruby.l1_cntrl1: MESI_Two_Level-L1cache.sm:1080: 2213900
2511992622500: system.ruby.l0_cntrl0: MESI_Two_Level-L00cache.sm:213: andrew
2511992651500: system.ruby.l1_cntrl1: MESI_Two_Level-L1cache.sm:1080: 2213900
2511992655500: system.ruby.l0_cntrl0: MESI_Two_Level-L00cache.sm:213: andrew
2511992684500: system.ruby.l1_cntrl1: MESI_Two_Level-L1cache.sm:1080: 2213900
2511992688500: system.ruby.l0_cntrl0: MESI_Two_Level-L00cache.sm:213: andrew
2511992717500: system.ruby.l1_cntrl1: MESI_Two_Level-L1cache.sm:1080: 2213900
2511992721500: system.ruby.l0_cntrl0: MESI_Two_Level-L00cache.sm:213: andrew
2511992750500: system.ruby.l1_cntrl1: MESI_Two_Level-L1cache.sm:1080: 2213900
2511992754500: system.ruby.l0_cntrl0: MESI_Two_Level-L00cache.sm:213: andrew
2511992783500: system.ruby.l1_cntrl1: MESI_Two_Level-L1cache.sm:1080: 2213900
2511992787500: system.ruby.l0_cntrl0: MESI_Two_Level-L00cache.sm:213: andrew
2511992816500: system.ruby.l1_cntrl1: MESI_Two_Level-L1cache.sm:1080: 2213900
2511992820500: system.ruby.l0_cntrl0: MESI_Two_Level-L00cache.sm:213: andrew
2511992849500: system.ruby.l1_cntrl1: MESI_Two_Level-L1cache.sm:1080: 2213900
2511992853500: system.ruby.l0_cntrl0: MESI_Two_Level-L00cache.sm:213: andrew
2511992882500: system.ruby.l1_cntrl1: MESI_Two_Level-L1cache.sm:1080: 2213900
2511992886500: system.ruby.l0_cntrl0: MESI_Two_Level-L00cache.sm:213: andrew
2511992915500: system.ruby.l1_cntrl1: MESI_Two_Level-L1cache.sm:1080: 2213900
2511992919500: system.ruby.l0_cntrl0: MESI_Two_Level-L00cache.sm:213: andrew
2511993192000: system.ruby.l1_cntrl1: MESI_Two_Level-L1cache.sm:1060: 2213940
2511993196000: system.ruby.l0_cntrl0: MESI_Two_Level-L00cache.sm:213: andrew
2511993225000: system.ruby.l1_cntrl1: MESI_Two_Level-L1cache.sm:1080: 2213940
2511993229000: system.ruby.l0_cntrl0: MESI_Two_Level-L00cache.sm:213: andrew
2511993258000: system.ruby.l1_cntrl1: MESI_Two_Level-L1cache.sm:1080: 2213940
2511993262000: system.ruby.l0_cntrl0: MESI_Two_Level-L00cache.sm:213: andrew
2511993291000: system.ruby.l1_cntrl1: MESI_Two_Level-L1cache.sm:1080: 2213940
2511993295000: system.ruby.l0_cntrl0: MESI_Two_Level-L00cache.sm:213: andrew
2511993324000: system.ruby.l1_cntrl1: MESI_Two_Level-L1cache.sm:1080: 2213940
2511993328000: system.ruby.l0_cntrl0: MESI_Two_Level-L00cache.sm:213: andrew
2511993357000: system.ruby.l1_cntrl1: MESI_Two_Level-L1cache.sm:1080: 2213940
2511993361000: system.ruby.l0_cntrl0: MESI_Two_Level-L00cache.sm:213: andrew
2511993390000: system.ruby.l1_cntrl1: MESI_Two_Level-L1cache.sm:1080: 2213940
2511993394000: system.ruby.l0_cntrl0: MESI_Two_Level-L00cache.sm:213: andrew
2511993423000: system.ruby.l1_cntrl1: MESI_Two_Level-L1cache.sm:1080: 2213940
2511993427000: system.ruby.l0_cntrl0: MESI_Two_Level-L00cache.sm:213: andrew
2511993749500: system.ruby.l1_cntrl1: MESI_Two_Level-L1cache.sm:1080: 2213940
2511993753500: system.ruby.l0_cntrl0: MESI_Two_Level-L00cache.sm:213: andrew
2511993782500: system.ruby.l1_cntrl1: MESI_Two_Level-L1cache.sm:1080: 2213940
2511993786500: system.ruby.l0_cntrl0: MESI_Two_Level-L00cache.sm:213: andrew
2511993815500: system.ruby.l1_cntrl1: MESI_Two_Level-L1cache.sm:1080: 2213940
2511993819500: system.ruby.l0_cntrl0: MESI_Two_Level-L00cache.sm:213: andrew
2511993848500: system.ruby.l1_cntrl1: MESI_Two_Level-L1cache.sm:1080: 2213940
2511993852500: system.ruby.l0_cntrl0: MESI_Two_Level-L00cache.sm:213: andrew
2511993881500: system.ruby.l1_cntrl1: MESI_Two_Level-L1cache.sm:1080: 2213940
2511993885500: system.ruby.l0_cntrl0: MESI_Two_Level-L00cache.sm:213: andrew
2511993914500: system.ruby.l1_cntrl1: MESI_Two_Level-L1cache.sm:1080: 2213940
2511993918500: system.ruby.l0_cntrl0: MESI_Two_Level-L00cache.sm:213: andrew
2511993947500: system.ruby.l1_cntrl1: MESI_Two_Level-L1cache.sm:1080: 2213940
2511993951500: system.ruby.l0_cntrl0: MESI_Two_Level-L00cache.sm:213: andrew
2511993980500: system.ruby.l1_cntrl1: MESI_Two_Level-L1cache.sm:1080: 2213940
2511993984500: system.ruby.l0_cntrl0: MESI_Two_Level-L00cache.sm:213: andrew
2511994013500: system.ruby.l1_cntrl1: MESI_Two_Level-L1cache.sm:1080: 2213940
2511994017500: system.ruby.l0_cntrl0: MESI_Two_Level-L00cache.sm:213: andrew
2511994046500: system.ruby.l1_cntrl1: MESI_Two_Level-L1cache.sm:1080: 2213940
2511994050500: system.ruby.l0_cntrl0: MESI_Two_Level-L00cache.sm:213: andrew
2511994079500: system.ruby.l1_cntrl1: MESI_Two_Level-L1cache.sm:1080: 2213940
2511994083500: system.ruby.l0_cntrl0: MESI_Two_Level-L00cache.sm:213: andrew
2511994112500: system.ruby.l1_cntrl1: MESI_Two_Level-L1cache.sm:1080: 2213940
2511994116500: system.ruby.l0_cntrl0: MESI_Two_Level-L00cache.sm:213: andrew
2511994145500: system.ruby.l1_cntrl1: MESI_Two_Level-L1cache.sm:1080: 2213940
2511994149500: system.ruby.l0_cntrl0: MESI_Two_Level-L00cache.sm:213: andrew
2511994178500: system.ruby.l1_cntrl1: MESI_Two_Level-L1cache.sm:1080: 2213940
2511994182500: system.ruby.l0_cntrl0: MESI_Two_Level-L00cache.sm:213: andrew
2511994211500: system.ruby.l1_cntrl1: MESI_Two_Level-L1cache.sm:1080: 2213940
2511994215500: system.ruby.l0_cntrl0: MESI_Two_Level-L00cache.sm:213: andrew
2511994244500: system.ruby.l1_cntrl1: MESI_Two_Level-L1cache.sm:1080: 2213940
2511994248500: system.ruby.l0_cntrl0: MESI_Two_Level-L00cache.sm:213: andrew
2511994277500: system.ruby.l1_cntrl1: MESI_Two_Level-L1cache.sm:1080: 2213940
2511994281500: system.ruby.l0_cntrl0: MESI_Two_Level-L00cache.sm:213: andrew
2511994310500: system.ruby.l1_cntrl1: MESI_Two_Level-L1cache.sm:1080: 2213940
2511994314500: system.ruby.l0_cntrl0: MESI_Two_Level-L00cache.sm:213: andrew
2511994343500: system.ruby.l1_cntrl1: MESI_Two_Level-L1cache.sm:1080: 2213940
2511994347500: system.ruby.l0_cntrl0: MESI_Two_Level-L00cache.sm:213: andrew
2511994376500: system.ruby.l1_cntrl1: MESI_Two_Level-L1cache.sm:1080: 2213940
2511994380500: system.ruby.l0_cntrl0: MESI_Two_Level-L00cache.sm:213: andrew
2511994409500: system.ruby.l1_cntrl1: MESI_Two_Level-L1cache.sm:1080: 2213940
2511994413500: system.ruby.l0_cntrl0: MESI_Two_Level-L00cache.sm:213: andrew
2511994442500: system.ruby.l1_cntrl1: MESI_Two_Level-L1cache.sm:1080: 2213940
2511994446500: system.ruby.l0_cntrl0: MESI_Two_Level-L00cache.sm:213: andrew
2511994475500: system.ruby.l1_cntrl1: MESI_Two_Level-L1cache.sm:1080: 2213940
2511994479500: system.ruby.l0_cntrl0: MESI_Two_Level-L00cache.sm:213: andrew
2511994508500: system.ruby.l1_cntrl1: MESI_Two_Level-L1cache.sm:1080: 2213940
2511994512500: system.ruby.l0_cntrl0: MESI_Two_Level-L00cache.sm:213: andrew
2511994635000: system.ruby.l1_cntrl1: MESI_Two_Level-L1cache.sm:1080: 2213940
2511994639000: system.ruby.l0_cntrl0: MESI_Two_Level-L00cache.sm:213: andrew
2512000331000: system.ruby.l1_cntrl1: MESI_Two_Level-L1cache.sm:1060: 1050f40
2512000335000: system.ruby.l0_cntrl0: MESI_Two_Level-L00cache.sm:213: andrew
2512005138500: system.ruby.l1_cntrl1: MESI_Two_Level-L1cache.sm:1080: 1050f40
2512005142500: system.ruby.l0_cntrl0: MESI_Two_Level-L00cache.sm:213: andrew
2512005218000: system.ruby.l1_cntrl1: MESI_Two_Level-L1cache.sm:1080: 1050f40
2512005222000: system.ruby.l0_cntrl0: MESI_Two_Level-L00cache.sm:213: andrew
2512008678500: system.ruby.l1_cntrl1: MESI_Two_Level-L1cache.sm:1080: 1050f40
2512008682500: system.ruby.l0_cntrl0: MESI_Two_Level-L00cache.sm:213: andrew
2512015826500: system.ruby.l1_cntrl1: MESI_Two_Level-L1cache.sm:1060: 1afc100
2512015830500: system.ruby.l0_cntrl0: MESI_Two_Level-L00cache.sm:213: andrew
2512015859500: system.ruby.l1_cntrl1: MESI_Two_Level-L1cache.sm:1080: 1afc100
2512015863500: system.ruby.l0_cntrl0: MESI_Two_Level-L00cache.sm:213: andrew
2512015911000: system.ruby.l1_cntrl1: MESI_Two_Level-L1cache.sm:1080: 1afc100
2512015915000: system.ruby.l0_cntrl0: MESI_Two_Level-L00cache.sm:213: andrew
2512015944000: system.ruby.l1_cntrl1: MESI_Two_Level-L1cache.sm:1080: 1afc100
2512015948000: system.ruby.l0_cntrl0: MESI_Two_Level-L00cache.sm:213: andrew
2512015977000: system.ruby.l1_cntrl1: MESI_Two_Level-L1cache.sm:1080: 1afc100
2512015981000: system.ruby.l0_cntrl0: MESI_Two_Level-L00cache.sm:213: andrew
2512016028500: system.ruby.l1_cntrl1: MESI_Two_Level-L1cache.sm:1080: 1afc100
2512016032500: system.ruby.l0_cntrl0: MESI_Two_Level-L00cache.sm:213: andrew
2512016080000: system.ruby.l1_cntrl1: MESI_Two_Level-L1cache.sm:1080: 1afc100
2512016084000: system.ruby.l0_cntrl0: MESI_Two_Level-L00cache.sm:213: andrew
2512016113000: system.ruby.l1_cntrl1: MESI_Two_Level-L1cache.sm:1080: 1afc100
2512016117000: system.ruby.l0_cntrl0: MESI_Two_Level-L00cache.sm:213: andrew
2512016146000: system.ruby.l1_cntrl1: MESI_Two_Level-L1cache.sm:1080: 1afc100
2512016150000: system.ruby.l0_cntrl0: MESI_Two_Level-L00cache.sm:213: andrew
2512016179000: system.ruby.l1_cntrl1: MESI_Two_Level-L1cache.sm:1080: 1afc100
2512016183000: system.ruby.l0_cntrl0: MESI_Two_Level-L00cache.sm:213: andrew
2512016212000: system.ruby.l1_cntrl1: MESI_Two_Level-L1cache.sm:1080: 1afc100
2512016216000: system.ruby.l0_cntrl0: MESI_Two_Level-L00cache.sm:213: andrew
2512016245000: system.ruby.l1_cntrl1: MESI_Two_Level-L1cache.sm:1080: 1afc100
2512016249000: system.ruby.l0_cntrl0: MESI_Two_Level-L00cache.sm:213: andrew
2512016278000: system.ruby.l1_cntrl1: MESI_Two_Level-L1cache.sm:1080: 1afc100
2512016282000: system.ruby.l0_cntrl0: MESI_Two_Level-L00cache.sm:213: andrew
2512016483500: system.ruby.l1_cntrl1: MESI_Two_Level-L1cache.sm:1080: 1afc100
2512016487500: system.ruby.l0_cntrl0: MESI_Two_Level-L00cache.sm:213: andrew
2512016508000: system.ruby.l1_cntrl1: MESI_Two_Level-L1cache.sm:1060: 1afc140
2512016512000: system.ruby.l0_cntrl0: MESI_Two_Level-L00cache.sm:213: andrew
2512016516500: system.ruby.l1_cntrl1: MESI_Two_Level-L1cache.sm:1080: 1afc100
2512016520500: system.ruby.l0_cntrl0: MESI_Two_Level-L00cache.sm:213: andrew
2512016552500: system.ruby.l1_cntrl1: MESI_Two_Level-L1cache.sm:1080: 1afc100
2512016556500: system.ruby.l0_cntrl0: MESI_Two_Level-L00cache.sm:213: andrew
2512016585000: system.ruby.l1_cntrl1: MESI_Two_Level-L1cache.sm:1080: 1afc100
2512016589000: system.ruby.l0_cntrl0: MESI_Two_Level-L00cache.sm:213: andrew
2512020238500: system.ruby.l1_cntrl1: MESI_Two_Level-L1cache.sm:1080: 1afc100
2512020242500: system.ruby.l0_cntrl0: MESI_Two_Level-L00cache.sm:213: andrew
2512020271500: system.ruby.l1_cntrl1: MESI_Two_Level-L1cache.sm:1080: 1afc100
2512020275500: system.ruby.l0_cntrl0: MESI_Two_Level-L00cache.sm:213: andrew
2512020321500: system.ruby.l1_cntrl1: MESI_Two_Level-L1cache.sm:1080: 1afc100
2512020325500: system.ruby.l0_cntrl0: MESI_Two_Level-L00cache.sm:213: andrew
2512020373000: system.ruby.l1_cntrl1: MESI_Two_Level-L1cache.sm:1080: 1afc100
2512020377000: system.ruby.l0_cntrl0: MESI_Two_Level-L00cache.sm:213: andrew
2512020421500: system.ruby.l1_cntrl1: MESI_Two_Level-L1cache.sm:1080: 1afc100
2512020425500: system.ruby.l0_cntrl0: MESI_Two_Level-L00cache.sm:213: andrew
2512020470000: system.ruby.l1_cntrl1: MESI_Two_Level-L1cache.sm:1080: 1afc100
2512020474000: system.ruby.l0_cntrl0: MESI_Two_Level-L00cache.sm:213: andrew
2512020503000: system.ruby.l1_cntrl1: MESI_Two_Level-L1cache.sm:1080: 1afc100
2512020507000: system.ruby.l1_cntrl1: MESI_Two_Level-L1cache.sm:1080: 1afc140
2512020507000: system.ruby.l0_cntrl0: MESI_Two_Level-L00cache.sm:213: andrew
2512020511000: system.ruby.l0_cntrl0: MESI_Two_Level-L00cache.sm:213: andrew
2512020536000: system.ruby.l1_cntrl1: MESI_Two_Level-L1cache.sm:1080: 1afc100
2512020540000: system.ruby.l0_cntrl0: MESI_Two_Level-L00cache.sm:213: andrew
2512020540500: system.ruby.l1_cntrl1: MESI_Two_Level-L1cache.sm:1080: 1afc140
2512020544500: system.ruby.l0_cntrl0: MESI_Two_Level-L00cache.sm:213: andrew
2512020569000: system.ruby.l1_cntrl1: MESI_Two_Level-L1cache.sm:1080: 1afc100
2512020573000: system.ruby.l0_cntrl0: MESI_Two_Level-L00cache.sm:213: andrew
2512020574000: system.ruby.l1_cntrl1: MESI_Two_Level-L1cache.sm:1080: 1afc140
[...]
2513455937500: system.ruby.l0_cntrl0: MESI_Two_Level-L00cache.sm:213: andrew
2513455952000: system.ruby.l1_cntrl1: MESI_Two_Level-L1cache.sm:1080: 2206940
2513455956000: system.ruby.l0_cntrl0: MESI_Two_Level-L00cache.sm:213: andrew
2513455967000: system.ruby.l1_cntrl1: MESI_Two_Level-L1cache.sm:1080: 2206980
2513455971000: system.ruby.l0_cntrl0: MESI_Two_Level-L00cache.sm:213: andrew
2513455985000: system.ruby.l1_cntrl1: MESI_Two_Level-L1cache.sm:1080: 2206940
2513455989000: system.ruby.l0_cntrl0: MESI_Two_Level-L00cache.sm:213: andrew
2513456000500: system.ruby.l1_cntrl1: MESI_Two_Level-L1cache.sm:1080: 2206980
2513456004500: system.ruby.l0_cntrl0: MESI_Two_Level-L00cache.sm:213: andrew
2513456018000: system.ruby.l1_cntrl1: MESI_Two_Level-L1cache.sm:1080: 2206940
2513456022000: system.ruby.l0_cntrl0: MESI_Two_Level-L00cache.sm:213: andrew
2513456033500: system.ruby.l1_cntrl1: MESI_Two_Level-L1cache.sm:1080: 2206980
2513456037500: system.ruby.l0_cntrl0: MESI_Two_Level-L00cache.sm:213: andrew
2513456051000: system.ruby.l1_cntrl1: MESI_Two_Level-L1cache.sm:1080: 2206940
2513456055000: system.ruby.l0_cntrl0: MESI_Two_Level-L00cache.sm:213: andrew
2513456066500: system.ruby.l1_cntrl1: MESI_Two_Level-L1cache.sm:1080: 2206980
2513456070500: system.ruby.l0_cntrl0: MESI_Two_Level-L00cache.sm:213: andrew
2513456084000: system.ruby.l1_cntrl1: MESI_Two_Level-L1cache.sm:1080: 2206940
2513456088000: system.ruby.l0_cntrl0: MESI_Two_Level-L00cache.sm:213: andrew
2513456117000: system.ruby.l1_cntrl1: MESI_Two_Level-L1cache.sm:1080: 2206940
2513456121000: system.ruby.l0_cntrl0: MESI_Two_Level-L00cache.sm:213: andrew
2513456168000: system.ruby.l1_cntrl1: MESI_Two_Level-L1cache.sm:1080: 2206940
2513456171500: system.ruby.l1_cntrl1: MESI_Two_Level-L1cache.sm:1080: 2206980
2513456172000: system.ruby.l0_cntrl0: MESI_Two_Level-L00cache.sm:213: andrew
2513456175500: system.ruby.l0_cntrl0: MESI_Two_Level-L00cache.sm:213: andrew
2513456199000: system.ruby.l1_cntrl1: MESI_Two_Level-L1cache.sm:1060: 22069c0
2513456203000: system.ruby.l0_cntrl0: MESI_Two_Level-L00cache.sm:213: andrew
2513456204500: system.ruby.l1_cntrl1: MESI_Two_Level-L1cache.sm:1080: 2206980
2513456208500: system.ruby.l0_cntrl0: MESI_Two_Level-L00cache.sm:213: andrew
2513456233000: system.ruby.l1_cntrl1: MESI_Two_Level-L1cache.sm:1080: 22069c0
2513456237000: system.ruby.l0_cntrl0: MESI_Two_Level-L00cache.sm:213: andrew
2513456237500: system.ruby.l1_cntrl1: MESI_Two_Level-L1cache.sm:1080: 2206980
2513456241500: system.ruby.l0_cntrl0: MESI_Two_Level-L00cache.sm:213: andrew
2513456266500: system.ruby.l1_cntrl1: MESI_Two_Level-L1cache.sm:1080: 22069c0
2513456270500: system.ruby.l1_cntrl1: MESI_Two_Level-L1cache.sm:1080: 2206980
2513456270500: system.ruby.l0_cntrl0: MESI_Two_Level-L00cache.sm:213: andrew
2513456274500: system.ruby.l0_cntrl0: MESI_Two_Level-L00cache.sm:213: andrew
2513456303000: system.ruby.l1_cntrl1: MESI_Two_Level-L1cache.sm:1080: 2206980
2513456307000: system.ruby.l0_cntrl0: MESI_Two_Level-L00cache.sm:213: andrew
2513456336000: system.ruby.l1_cntrl1: MESI_Two_Level-L1cache.sm:1080: 2206980
2513456340000: system.ruby.l0_cntrl0: MESI_Two_Level-L00cache.sm:213: andrew
2513456346000: system.ruby.l1_cntrl1: MESI_Two_Level-L1cache.sm:1080: 22069c0
2513456350000: system.ruby.l0_cntrl0: MESI_Two_Level-L00cache.sm:213: andrew
2513456369000: system.ruby.l1_cntrl1: MESI_Two_Level-L1cache.sm:1080: 2206980
2513456373000: system.ruby.l0_cntrl0: MESI_Two_Level-L00cache.sm:213: andrew
2513456379500: system.ruby.l1_cntrl1: MESI_Two_Level-L1cache.sm:1080: 22069c0
2513456383500: system.ruby.l0_cntrl0: MESI_Two_Level-L00cache.sm:213: andrew
2513456402000: system.ruby.l1_cntrl1: MESI_Two_Level-L1cache.sm:1080: 2206980
2513456406000: system.ruby.l0_cntrl0: MESI_Two_Level-L00cache.sm:213: andrew
2513456412500: system.ruby.l1_cntrl1: MESI_Two_Level-L1cache.sm:1080: 22069c0
2513456416500: system.ruby.l0_cntrl0: MESI_Two_Level-L00cache.sm:213: andrew
2513456435000: system.ruby.l1_cntrl1: MESI_Two_Level-L1cache.sm:1080: 2206980
2513456439000: system.ruby.l0_cntrl0: MESI_Two_Level-L00cache.sm:213: andrew
2513456445500: system.ruby.l1_cntrl1: MESI_Two_Level-L1cache.sm:1080: 22069c0
2513456449500: system.ruby.l0_cntrl0: MESI_Two_Level-L00cache.sm:213: andrew
2513456452500: system.ruby.l1_cntrl1: MESI_Two_Level-L1cache.sm:1060: 2206a00
2513456456500: system.ruby.l0_cntrl0: MESI_Two_Level-L00cache.sm:213: andrew
2513456468000: system.ruby.l1_cntrl1: MESI_Two_Level-L1cache.sm:1080: 2206980
2513456472000: system.ruby.l0_cntrl0: MESI_Two_Level-L00cache.sm:213: andrew
2513456478500: system.ruby.l1_cntrl1: MESI_Two_Level-L1cache.sm:1080: 22069c0
2513456482500: system.ruby.l0_cntrl0: MESI_Two_Level-L00cache.sm:213: andrew
2513456501000: system.ruby.l1_cntrl1: MESI_Two_Level-L1cache.sm:1080: 2206980
2513456505000: system.ruby.l0_cntrl0: MESI_Two_Level-L00cache.sm:213: andrew
2513456511500: system.ruby.l1_cntrl1: MESI_Two_Level-L1cache.sm:1080: 22069c0
2513456515500: system.ruby.l0_cntrl0: MESI_Two_Level-L00cache.sm:213: andrew
2513456544000: system.ruby.l1_cntrl1: MESI_Two_Level-L1cache.sm:1080: 22069c0
2513456548000: system.ruby.l0_cntrl0: MESI_Two_Level-L00cache.sm:213: andrew
2513456561000: system.ruby.l1_cntrl1: MESI_Two_Level-L1cache.sm:1080: 2206a00
2513456565000: system.ruby.l0_cntrl0: MESI_Two_Level-L00cache.sm:213: andrew
2513456577000: system.ruby.l1_cntrl1: MESI_Two_Level-L1cache.sm:1080: 22069c0
2513456581000: system.ruby.l0_cntrl0: MESI_Two_Level-L00cache.sm:213: andrew
2513456594500: system.ruby.l1_cntrl1: MESI_Two_Level-L1cache.sm:1080: 2206a00
2513456598500: system.ruby.l0_cntrl0: MESI_Two_Level-L00cache.sm:213: andrew
2513456610000: system.ruby.l1_cntrl1: MESI_Two_Level-L1cache.sm:1080: 22069c0
2513456614000: system.ruby.l0_cntrl0: MESI_Two_Level-L00cache.sm:213: andrew
2513456631500: system.ruby.l1_cntrl1: MESI_Two_Level-L1cache.sm:1080: 2206a00
2513456635500: system.ruby.l0_cntrl0: MESI_Two_Level-L00cache.sm:213: andrew
2513456643000: system.ruby.l1_cntrl1: MESI_Two_Level-L1cache.sm:1080: 22069c0
2513456647000: system.ruby.l0_cntrl0: MESI_Two_Level-L00cache.sm:213: andrew
2513456664500: system.ruby.l1_cntrl1: MESI_Two_Level-L1cache.sm:1080: 2206a00
2513456668500: system.ruby.l0_cntrl0: MESI_Two_Level-L00cache.sm:213: andrew
2513456676000: system.ruby.l1_cntrl1: MESI_Two_Level-L1cache.sm:1080: 22069c0
2513456680000: system.ruby.l0_cntrl0: MESI_Two_Level-L00cache.sm:213: andrew
2513456697500: system.ruby.l1_cntrl1: MESI_Two_Level-L1cache.sm:1080: 2206a00
2513456701500: system.ruby.l0_cntrl0: MESI_Two_Level-L00cache.sm:213: andrew
2513456701500: system.ruby.l1_cntrl1: MESI_Two_Level-L1cache.sm:1060: 2206a40
2513456705500: system.ruby.l0_cntrl0: MESI_Two_Level-L00cache.sm:213: andrew
2513456709000: system.ruby.l1_cntrl1: MESI_Two_Level-L1cache.sm:1080: 22069c0
2513456713000: system.ruby.l0_cntrl0: MESI_Two_Level-L00cache.sm:213: andrew
2513456730500: system.ruby.l1_cntrl1: MESI_Two_Level-L1cache.sm:1080: 2206a00
2513456734500: system.ruby.l0_cntrl0: MESI_Two_Level-L00cache.sm:213: andrew
2513456735000: system.ruby.l1_cntrl1: MESI_Two_Level-L1cache.sm:1080: 2206a40
2513456739000: system.ruby.l0_cntrl0: MESI_Two_Level-L00cache.sm:213: andrew
2513456763500: system.ruby.l1_cntrl1: MESI_Two_Level-L1cache.sm:1080: 2206a00
2513456767500: system.ruby.l0_cntrl0: MESI_Two_Level-L00cache.sm:213: andrew
2513456787000: system.ruby.l1_cntrl1: MESI_Two_Level-L1cache.sm:1080: 2206a40
2513456791000: system.ruby.l0_cntrl0: MESI_Two_Level-L00cache.sm:213: andrew
2513456796500: system.ruby.l1_cntrl1: MESI_Two_Level-L1cache.sm:1080: 2206a00
2513456800500: system.ruby.l0_cntrl0: MESI_Two_Level-L00cache.sm:213: andrew
2513456820500: system.ruby.l1_cntrl1: MESI_Two_Level-L1cache.sm:1080: 2206a40
2513456824500: system.ruby.l0_cntrl0: MESI_Two_Level-L00cache.sm:213: andrew
2513456829500: system.ruby.l1_cntrl1: MESI_Two_Level-L1cache.sm:1080: 2206a00
2513456833500: system.ruby.l0_cntrl0: MESI_Two_Level-L00cache.sm:213: andrew
2513456854000: system.ruby.l1_cntrl1: MESI_Two_Level-L1cache.sm:1080: 2206a40
2513456858000: system.ruby.l0_cntrl0: MESI_Two_Level-L00cache.sm:213: andrew
2513456862500: system.ruby.l1_cntrl1: MESI_Two_Level-L1cache.sm:1080: 2206a00
2513456866500: system.ruby.l0_cntrl0: MESI_Two_Level-L00cache.sm:213: andrew
2513456887000: system.ruby.l1_cntrl1: MESI_Two_Level-L1cache.sm:1080: 2206a40
2513456891000: system.ruby.l0_cntrl0: MESI_Two_Level-L00cache.sm:213: andrew
2513456895000: system.ruby.l1_cntrl1: MESI_Two_Level-L1cache.sm:1080: 2206a00
2513456899000: system.ruby.l0_cntrl0: MESI_Two_Level-L00cache.sm:213: andrew
2513456920000: system.ruby.l1_cntrl1: MESI_Two_Level-L1cache.sm:1080: 2206a40
2513456924000: system.ruby.l0_cntrl0: MESI_Two_Level-L00cache.sm:213: andrew
2513456928000: system.ruby.l1_cntrl1: MESI_Two_Level-L1cache.sm:1080: 2206a00
2513456932000: system.ruby.l0_cntrl0: MESI_Two_Level-L00cache.sm:213: andrew
2513456953000: system.ruby.l1_cntrl1: MESI_Two_Level-L1cache.sm:1080: 2206a40
2513456957000: system.ruby.l0_cntrl0: MESI_Two_Level-L00cache.sm:213: andrew
2513456961000: system.ruby.l1_cntrl1: MESI_Two_Level-L1cache.sm:1080: 2206a00
2513456965000: system.ruby.l0_cntrl0: MESI_Two_Level-L00cache.sm:213: andrew
2513456986000: system.ruby.l1_cntrl1: MESI_Two_Level-L1cache.sm:1080: 2206a40
2513456990000: system.ruby.l0_cntrl0: MESI_Two_Level-L00cache.sm:213: andrew
2513457017500: system.ruby.l1_cntrl1: MESI_Two_Level-L1cache.sm:1060: 2206a80
2513457019000: system.ruby.l1_cntrl1: MESI_Two_Level-L1cache.sm:1080: 2206a40
2513457021500: system.ruby.l0_cntrl0: MESI_Two_Level-L00cache.sm:213: andrew
2513457023000: system.ruby.l0_cntrl0: MESI_Two_Level-L00cache.sm:213: andrew
2513457050500: system.ruby.l1_cntrl1: MESI_Two_Level-L1cache.sm:1080: 2206a80
2513457052500: system.ruby.l1_cntrl1: MESI_Two_Level-L1cache.sm:1080: 2206a40
2513457054500: system.ruby.l0_cntrl0: MESI_Two_Level-L00cache.sm:213: andrew
2513457056500: system.ruby.l0_cntrl0: MESI_Two_Level-L00cache.sm:213: andrew
2513457084000: system.ruby.l1_cntrl1: MESI_Two_Level-L1cache.sm:1080: 2206a80
2513457085500: system.ruby.l1_cntrl1: MESI_Two_Level-L1cache.sm:1080: 2206a40
2513457088000: system.ruby.l0_cntrl0: MESI_Two_Level-L00cache.sm:213: andrew
2513457089500: system.ruby.l0_cntrl0: MESI_Two_Level-L00cache.sm:213: andrew
2513457117000: system.ruby.l1_cntrl1: MESI_Two_Level-L1cache.sm:1080: 2206a80
2513457119000: system.ruby.l1_cntrl1: MESI_Two_Level-L1cache.sm:1080: 2206a40
2513457121000: system.ruby.l0_cntrl0: MESI_Two_Level-L00cache.sm:213: andrew
2513457123000: system.ruby.l0_cntrl0: MESI_Two_Level-L00cache.sm:213: andrew
2513457150000: system.ruby.l1_cntrl1: MESI_Two_Level-L1cache.sm:1080: 2206a80
2513457152000: system.ruby.l1_cntrl1: MESI_Two_Level-L1cache.sm:1080: 2206a40
2513457154000: system.ruby.l0_cntrl0: MESI_Two_Level-L00cache.sm:213: andrew
2513457156000: system.ruby.l0_cntrl0: MESI_Two_Level-L00cache.sm:213: andrew
2513457183000: system.ruby.l1_cntrl1: MESI_Two_Level-L1cache.sm:1080: 2206a80
2513457185000: system.ruby.l1_cntrl1: MESI_Two_Level-L1cache.sm:1080: 2206a40
2513457187000: system.ruby.l0_cntrl0: MESI_Two_Level-L00cache.sm:213: andrew
2513457189000: system.ruby.l0_cntrl0: MESI_Two_Level-L00cache.sm:213: andrew
2513457216000: system.ruby.l1_cntrl1: MESI_Two_Level-L1cache.sm:1080: 2206a80
2513457220000: system.ruby.l0_cntrl0: MESI_Two_Level-L00cache.sm:213: andrew
2513457226500: system.ruby.l1_cntrl1: MESI_Two_Level-L1cache.sm:1060: 2206ac0
2513457230500: system.ruby.l0_cntrl0: MESI_Two_Level-L00cache.sm:213: andrew
2513457249000: system.ruby.l1_cntrl1: MESI_Two_Level-L1cache.sm:1080: 2206a80
2513457253000: system.ruby.l0_cntrl0: MESI_Two_Level-L00cache.sm:213: andrew
2513457274000: system.ruby.l1_cntrl1: MESI_Two_Level-L1cache.sm:1080: 2206ac0
2513457278000: system.ruby.l0_cntrl0: MESI_Two_Level-L00cache.sm:213: andrew
2513457282000: system.ruby.l1_cntrl1: MESI_Two_Level-L1cache.sm:1080: 2206a80
2513457286000: system.ruby.l0_cntrl0: MESI_Two_Level-L00cache.sm:213: andrew
2513457307500: system.ruby.l1_cntrl1: MESI_Two_Level-L1cache.sm:1080: 2206ac0
2513457311500: system.ruby.l0_cntrl0: MESI_Two_Level-L00cache.sm:213: andrew
2513457315000: system.ruby.l1_cntrl1: MESI_Two_Level-L1cache.sm:1080: 2206a80
2513457319000: system.ruby.l0_cntrl0: MESI_Two_Level-L00cache.sm:213: andrew
2513457341000: system.ruby.l1_cntrl1: MESI_Two_Level-L1cache.sm:1080: 2206ac0
2513457345000: system.ruby.l0_cntrl0: MESI_Two_Level-L00cache.sm:213: andrew
2513457348000: system.ruby.l1_cntrl1: MESI_Two_Level-L1cache.sm:1080: 2206a80
2513457352000: system.ruby.l0_cntrl0: MESI_Two_Level-L00cache.sm:213: andrew
2513457363500: system.ruby.l1_cntrl1: MESI_Two_Level-L1cache.sm:1060: 2206b00
2513457367500: system.ruby.l0_cntrl0: MESI_Two_Level-L00cache.sm:213: andrew
2513457374500: system.ruby.l1_cntrl1: MESI_Two_Level-L1cache.sm:1080: 2206ac0
2513457378500: system.ruby.l0_cntrl0: MESI_Two_Level-L00cache.sm:213: andrew
2513457381000: system.ruby.l1_cntrl1: MESI_Two_Level-L1cache.sm:1080: 2206a80
2513457385000: system.ruby.l0_cntrl0: MESI_Two_Level-L00cache.sm:213: andrew
2513457409000: system.ruby.l1_cntrl1: MESI_Two_Level-L1cache.sm:1080: 2206ac0
2513457413000: system.ruby.l0_cntrl0: MESI_Two_Level-L00cache.sm:213: andrew
2513457414000: system.ruby.l1_cntrl1: MESI_Two_Level-L1cache.sm:1080: 2206a80
2513457418000: system.ruby.l0_cntrl0: MESI_Two_Level-L00cache.sm:213: andrew
2513457428000: system.ruby.l1_cntrl1: MESI_Two_Level-L1cache.sm:1080: 2206b00
2513457432000: system.ruby.l0_cntrl0: MESI_Two_Level-L00cache.sm:213: andrew
2513457441500: system.ruby.l1_cntrl1: MESI_Two_Level-L1cache.sm:1080: 2206ac0
2513457445500: system.ruby.l0_cntrl0: MESI_Two_Level-L00cache.sm:213: andrew
2513457447000: system.ruby.l1_cntrl1: MESI_Two_Level-L1cache.sm:1080: 2206a80
2513457451000: system.ruby.l0_cntrl0: MESI_Two_Level-L00cache.sm:213: andrew
2513457461500: system.ruby.l1_cntrl1: MESI_Two_Level-L1cache.sm:1080: 2206b00
2513457465500: system.ruby.l0_cntrl0: MESI_Two_Level-L00cache.sm:213: andrew
2513457474500: system.ruby.l1_cntrl1: MESI_Two_Level-L1cache.sm:1080: 2206ac0
2513457478500: system.ruby.l0_cntrl0: MESI_Two_Level-L00cache.sm:213: andrew
2513457495000: system.ruby.l1_cntrl1: MESI_Two_Level-L1cache.sm:1080: 2206b00
2513457499000: system.ruby.l0_cntrl0: MESI_Two_Level-L00cache.sm:213: andrew
2513457507500: system.ruby.l1_cntrl1: MESI_Two_Level-L1cache.sm:1080: 2206ac0
2513457511500: system.ruby.l0_cntrl0: MESI_Two_Level-L00cache.sm:213: andrew
2513457528000: system.ruby.l1_cntrl1: MESI_Two_Level-L1cache.sm:1080: 2206b00
2513457532000: system.ruby.l0_cntrl0: MESI_Two_Level-L00cache.sm:213: andrew
2513457540500: system.ruby.l1_cntrl1: MESI_Two_Level-L1cache.sm:1080: 2206ac0
2513457544500: system.ruby.l0_cntrl0: MESI_Two_Level-L00cache.sm:213: andrew
2513457561000: system.ruby.l1_cntrl1: MESI_Two_Level-L1cache.sm:1080: 2206b00
2513457565000: system.ruby.l0_cntrl0: MESI_Two_Level-L00cache.sm:213: andrew
2513457573500: system.ruby.l1_cntrl1: MESI_Two_Level-L1cache.sm:1080: 2206ac0
2513457577500: system.ruby.l0_cntrl0: MESI_Two_Level-L00cache.sm:213: andrew
2513457606500: system.ruby.l1_cntrl1: MESI_Two_Level-L1cache.sm:1080: 2206ac0
2513457609500: system.ruby.l1_cntrl1: MESI_Two_Level-L1cache.sm:1080: 2206b00
2513457610500: system.ruby.l0_cntrl0: MESI_Two_Level-L00cache.sm:213: andrew
2513457613500: system.ruby.l0_cntrl0: MESI_Two_Level-L00cache.sm:213: andrew
2513457658500: system.ruby.l1_cntrl1: MESI_Two_Level-L1cache.sm:1080: 2206ac0
2513457662500: system.ruby.l0_cntrl0: MESI_Two_Level-L00cache.sm:213: andrew
2513457671500: system.ruby.l1_cntrl1: MESI_Two_Level-L1cache.sm:1080: 2206b00
2513457675500: system.ruby.l0_cntrl0: MESI_Two_Level-L00cache.sm:213: andrew
2513457704500: system.ruby.l1_cntrl1: MESI_Two_Level-L1cache.sm:1080: 2206b00
2513457708500: system.ruby.l0_cntrl0: MESI_Two_Level-L00cache.sm:213: andrew
2513457711500: system.ruby.l1_cntrl1: MESI_Two_Level-L1cache.sm:1060: 2206b40
2513457715500: system.ruby.l0_cntrl0: MESI_Two_Level-L00cache.sm:213: andrew
2513457737500: system.ruby.l1_cntrl1: MESI_Two_Level-L1cache.sm:1080: 2206b00
2513457741500: system.ruby.l0_cntrl0: MESI_Two_Level-L00cache.sm:213: andrew
2513457745000: system.ruby.l1_cntrl1: MESI_Two_Level-L1cache.sm:1080: 2206b40
2513457749000: system.ruby.l0_cntrl0: MESI_Two_Level-L00cache.sm:213: andrew
2513457770500: system.ruby.l1_cntrl1: MESI_Two_Level-L1cache.sm:1080: 2206b00
2513457774500: system.ruby.l0_cntrl0: MESI_Two_Level-L00cache.sm:213: andrew
2513457803000: system.ruby.l1_cntrl1: MESI_Two_Level-L1cache.sm:1080: 2206b00
2513457807000: system.ruby.l0_cntrl0: MESI_Two_Level-L00cache.sm:213: andrew
2513457836000: system.ruby.l1_cntrl1: MESI_Two_Level-L1cache.sm:1080: 2206b00
2513457840000: system.ruby.l0_cntrl0: MESI_Two_Level-L00cache.sm:213: andrew
2513457843000: system.ruby.l1_cntrl1: MESI_Two_Level-L1cache.sm:1080: 2206b40
2513457847000: system.ruby.l0_cntrl0: MESI_Two_Level-L00cache.sm:213: andrew
2513457869000: system.ruby.l1_cntrl1: MESI_Two_Level-L1cache.sm:1080: 2206b00
2513457873000: system.ruby.l0_cntrl0: MESI_Two_Level-L00cache.sm:213: andrew
2513457875500: system.ruby.l1_cntrl1: MESI_Two_Level-L1cache.sm:1080: 2206b40
2513457879500: system.ruby.l0_cntrl0: MESI_Two_Level-L00cache.sm:213: andrew
2513457902000: system.ruby.l1_cntrl1: MESI_Two_Level-L1cache.sm:1080: 2206b00
2513457906000: system.ruby.l0_cntrl0: MESI_Two_Level-L00cache.sm:213: andrew
2513457908500: system.ruby.l1_cntrl1: MESI_Two_Level-L1cache.sm:1080: 2206b40
2513457912500: system.ruby.l0_cntrl0: MESI_Two_Level-L00cache.sm:213: andrew
2513457935000: system.ruby.l1_cntrl1: MESI_Two_Level-L1cache.sm:1080: 2206b00
2513457939000: system.ruby.l0_cntrl0: MESI_Two_Level-L00cache.sm:213: andrew
2513457967500: system.ruby.l1_cntrl1: MESI_Two_Level-L1cache.sm:1080: 2206b00
2513457969500: system.ruby.l1_cntrl1: MESI_Two_Level-L1cache.sm:1080: 2206b40
2513457971500: system.ruby.l0_cntrl0: MESI_Two_Level-L00cache.sm:213: andrew
2513457973500: system.ruby.l0_cntrl0: MESI_Two_Level-L00cache.sm:213: andrew
2513458000500: system.ruby.l1_cntrl1: MESI_Two_Level-L1cache.sm:1080: 2206b00
2513458002500: system.ruby.l1_cntrl1: MESI_Two_Level-L1cache.sm:1080: 2206b40
2513458004500: system.ruby.l0_cntrl0: MESI_Two_Level-L00cache.sm:213: andrew
2513458006500: system.ruby.l0_cntrl0: MESI_Two_Level-L00cache.sm:213: andrew
2513458033500: system.ruby.l1_cntrl1: MESI_Two_Level-L1cache.sm:1080: 2206b00
2513458035500: system.ruby.l1_cntrl1: MESI_Two_Level-L1cache.sm:1080: 2206b40
2513458037500: system.ruby.l0_cntrl0: MESI_Two_Level-L00cache.sm:213: andrew
2513458039500: system.ruby.l0_cntrl0: MESI_Two_Level-L00cache.sm:213: andrew
2513458066500: system.ruby.l1_cntrl1: MESI_Two_Level-L1cache.sm:1080: 2206b00
2513458068500: system.ruby.l1_cntrl1: MESI_Two_Level-L1cache.sm:1080: 2206b40
2513458070500: system.ruby.l0_cntrl0: MESI_Two_Level-L00cache.sm:213: andrew
2513458072500: system.ruby.l0_cntrl0: MESI_Two_Level-L00cache.sm:213: andrew
2513458107000: system.ruby.l1_cntrl1: MESI_Two_Level-L1cache.sm:1080: 2206b40
2513458111000: system.ruby.l0_cntrl0: MESI_Two_Level-L00cache.sm:213: andrew
2513458140000: system.ruby.l1_cntrl1: MESI_Two_Level-L1cache.sm:1080: 2206b40
2513458144000: system.ruby.l0_cntrl0: MESI_Two_Level-L00cache.sm:213: andrew
2513458173000: system.ruby.l1_cntrl1: MESI_Two_Level-L1cache.sm:1080: 2206b40
2513458177000: system.ruby.l0_cntrl0: MESI_Two_Level-L00cache.sm:213: andrew
2513458206000: system.ruby.l1_cntrl1: MESI_Two_Level-L1cache.sm:1080: 2206b40
2513458210000: system.ruby.l0_cntrl0: MESI_Two_Level-L00cache.sm:213: andrew
2513458239000: system.ruby.l1_cntrl1: MESI_Two_Level-L1cache.sm:1080: 2206b40
2513458243000: system.ruby.l0_cntrl0: MESI_Two_Level-L00cache.sm:213: andrew
2513458272000: system.ruby.l1_cntrl1: MESI_Two_Level-L1cache.sm:1080: 2206b40
2513458276000: system.ruby.l0_cntrl0: MESI_Two_Level-L00cache.sm:213: andrew
Exiting @ tick 2513488078500 because a thread reached the max instruction count
