gem5 Simulator System.  http://gem5.org
gem5 is copyrighted software; use the --copyright option for details.

gem5 compiled Mar 24 2019 15:02:32
gem5 started Mar 24 2019 15:08:44
gem5 executing on liu-MS-7996, pid 6910
command line: /home/liu/gemn/gem5/build/X86_MESI_Two_Level/gem5.opt --outdir=/home/liu/gemn/gem5/my_script/output/X86_MESI_Two_Level/2_core/ubuntu-16.img/vmlinux_4.19.0/502.gcc_r_readfile_0/ --debug-flags=yyflag /home/liu/gemn/gem5/configs/example/fs.py --checkpoint-dir=/home/liu/gemn/gem5/my_script/checkpoints/X86_MESI_Two_Level/2_core --script /home/liu/gemn/gem5/my_script/readfiles/502.gcc_r_readfile_0 --kernel vmlinux_4.19.0 --disk-image ubuntu-16.img --cpu-type=DerivO3CPU --restore-with-cpu=AtomicSimpleCPU --maxinsts=10000000 --mem-size 2GB --num-cpus 2 --caches --l2cache --num-dirs=2 --num-l2caches=2 --num-l3caches=2 --l1d_size=32kB --l1i_size=32kB --l2_size=2MB --l3_size=2MB --l1d_assoc=8 --l1i_assoc=8 --l2_assoc=16 --l3_assoc=8 --ruby --rct_size 50 --num_ctrs 5 -r 1 --command-line 'earlyprintk=ttyS0 console=ttyS0 console_msg_format=syslog lpj=7999923 panic=-1 printk.devkmsg=on printk.time=y rw root=/dev/sda2'

Global frequency set at 1000000000000 ticks per second
      0: rtc: Real-time clock set to Sun Jan  1 00:00:00 2012
Switch at curTick count:10000
Switched CPUS @ tick 2508364162500
switching cpus
**** REAL SIMULATION ****
2508364241500: system.ruby.l0_cntrl0: MESI_Two_Level-L00cache.sm:221: delay inport addr 7cb52fc0 
2508364241500: system.ruby.l0_cntrl1: MESI_Two_Level-L00cache.sm:221: delay inport addr 7bb31000 
2508364311000: system.ruby.l0_cntrl0: MESI_Two_Level-L00cache.sm:221: delay inport addr 200cfc0 
2508364317000: system.ruby.l0_cntrl1: MESI_Two_Level-L00cache.sm:221: delay inport addr 7969e000 
2508364373000: system.ruby.l0_cntrl0: MESI_Two_Level-L00cache.sm:221: delay inport addr 200d040 
2508364392500: system.ruby.l0_cntrl1: MESI_Two_Level-L00cache.sm:221: delay inport addr 797e6000 
2508364448500: system.ruby.l0_cntrl0: MESI_Two_Level-L00cache.sm:221: delay inport addr 1182d00 
2508364462000: system.ruby.l0_cntrl1: MESI_Two_Level-L00cache.sm:221: delay inport addr 794e7000 
2508364525500: system.ruby.l0_cntrl0: MESI_Two_Level-L00cache.sm:221: delay inport addr 1182d40 
2508364527500: system.ruby.l0_cntrl0: MESI_Two_Level-L00cache.sm:221: delay inport addr 7cb52c80 
2508364530500: system.ruby.l0_cntrl0: MESI_Two_Level-L00cache.sm:221: delay inport addr 1182ac0 
2508364535500: system.ruby.l0_cntrl1: MESI_Two_Level-L00cache.sm:221: delay inport addr 77ac4a80 
2508364602000: system.ruby.l0_cntrl1: MESI_Two_Level-L00cache.sm:221: delay inport addr 77ac4900 
2508364618500: system.ruby.l0_cntrl0: MESI_Two_Level-L00cache.sm:221: delay inport addr 7d50f000 
2508364623500: system.ruby.l0_cntrl0: MESI_Two_Level-L00cache.sm:221: delay inport addr 1182b00 
2508364628500: system.ruby.l0_cntrl1: MESI_Two_Level-L00cache.sm:221: delay inport addr 77ac4ac0 
2508364631000: system.ruby.l0_cntrl1: MESI_Two_Level-L00cache.sm:221: delay inport addr 78ca6000 
2508364664000: system.ruby.l0_cntrl1: MESI_Two_Level-L00cache.sm:221: delay inport addr 77ac4940 
2508364687000: system.ruby.l0_cntrl0: MESI_Two_Level-L00cache.sm:221: delay inport addr 1182b40 
2508364702000: system.ruby.l0_cntrl0: MESI_Two_Level-L00cache.sm:221: delay inport addr 7d510000 
2508364705000: system.ruby.l0_cntrl1: MESI_Two_Level-L00cache.sm:221: delay inport addr 77ad6000 
2508364722000: system.ruby.l0_cntrl1: MESI_Two_Level-L00cache.sm:221: delay inport addr 77ac4980 
2508364742500: system.ruby.l0_cntrl1: MESI_Two_Level-L00cache.sm:221: delay inport addr 7bb317c0 
2508364751500: system.ruby.l0_cntrl0: MESI_Two_Level-L00cache.sm:221: delay inport addr 1182b80 
2508364758000: system.ruby.l0_cntrl0: MESI_Two_Level-L00cache.sm:221: delay inport addr 7d511000 
2508364820000: system.ruby.l0_cntrl1: MESI_Two_Level-L00cache.sm:221: delay inport addr 7bafcf80 
2508364827500: system.ruby.l0_cntrl0: MESI_Two_Level-L00cache.sm:221: delay inport addr 1182bc0 
2508364832500: system.ruby.l0_cntrl1: MESI_Two_Level-L00cache.sm:221: delay inport addr 78c0fac0 
2508364834500: system.ruby.l0_cntrl0: MESI_Two_Level-L00cache.sm:221: delay inport addr 7d50eec0 
2508364845500: system.ruby.l0_cntrl0: MESI_Two_Level-L00cache.sm:221: delay inport addr 7cb52880 
2508364910500: system.ruby.l0_cntrl1: MESI_Two_Level-L00cache.sm:221: delay inport addr 7baf0240 
2508364916500: system.ruby.l0_cntrl1: MESI_Two_Level-L00cache.sm:221: delay inport addr 78ca0740 
2508364928500: system.ruby.l0_cntrl0: MESI_Two_Level-L00cache.sm:221: delay inport addr 1001f80 
2508364977000: system.ruby.l0_cntrl0: MESI_Two_Level-L00cache.sm:221: delay inport addr 2401000 
2508364994000: system.ruby.l0_cntrl1: MESI_Two_Level-L00cache.sm:221: delay inport addr 7bb0e740 
2508365006000: system.ruby.l0_cntrl1: MESI_Two_Level-L00cache.sm:221: delay inport addr 79485dc0 
2508365013000: system.ruby.l0_cntrl0: MESI_Two_Level-L00cache.sm:221: delay inport addr 1001fc0 
2508365060500: system.ruby.l0_cntrl0: MESI_Two_Level-L00cache.sm:221: delay inport addr 2404f40 
2508365082500: system.ruby.l0_cntrl1: MESI_Two_Level-L00cache.sm:221: delay inport addr 1f78e40 
2508365104000: system.ruby.l0_cntrl0: MESI_Two_Level-L00cache.sm:221: delay inport addr 1002000 
2508365150000: system.ruby.l0_cntrl0: MESI_Two_Level-L00cache.sm:221: delay inport addr 7d5b0800 
2508365156000: system.ruby.l0_cntrl1: MESI_Two_Level-L00cache.sm:221: delay inport addr 1f78e80 
2508365219000: system.ruby.l0_cntrl1: MESI_Two_Level-L00cache.sm:221: delay inport addr 1f78ec0 
2508365255000: system.ruby.l0_cntrl0: MESI_Two_Level-L00cache.sm:221: delay inport addr 7da14d00 
2508365281500: system.ruby.l0_cntrl1: MESI_Two_Level-L00cache.sm:221: delay inport addr 1f78f00 
2508365316000: system.ruby.l0_cntrl1: MESI_Two_Level-L00cache.sm:221: delay inport addr 79485d80 
2508365343000: system.ruby.l0_cntrl0: MESI_Two_Level-L00cache.sm:221: delay inport addr 7d5b0ac0 
2508365391500: system.ruby.l0_cntrl1: MESI_Two_Level-L00cache.sm:221: delay inport addr 1f5b9c0 
2508365419000: system.ruby.l0_cntrl0: MESI_Two_Level-L00cache.sm:221: delay inport addr 7d558000 
2508365481000: system.ruby.l0_cntrl1: MESI_Two_Level-L00cache.sm:221: delay inport addr 1f5ba00 
2508365518000: system.ruby.l0_cntrl0: MESI_Two_Level-L00cache.sm:221: delay inport addr 1101840 
2508365544000: system.ruby.l0_cntrl1: MESI_Two_Level-L00cache.sm:221: delay inport addr 1f5ba40 
2508365571500: system.ruby.l0_cntrl1: MESI_Two_Level-L00cache.sm:221: delay inport addr 78d12e40 
2508365578500: system.ruby.l0_cntrl0: MESI_Two_Level-L00cache.sm:221: delay inport addr 7da14c80 
2508365609500: system.ruby.l0_cntrl0: MESI_Two_Level-L00cache.sm:221: delay inport addr 1101880 
2508365611500: system.ruby.l0_cntrl0: MESI_Two_Level-L00cache.sm:221: delay inport addr 7d558840 
2508365615500: system.ruby.l0_cntrl0: MESI_Two_Level-L00cache.sm:221: delay inport addr 7da1bfc0 
2508365647500: system.ruby.l0_cntrl1: MESI_Two_Level-L00cache.sm:221: delay inport addr 791b41c0 
2508365652500: system.ruby.l0_cntrl1: MESI_Two_Level-L00cache.sm:221: delay inport addr 791b4240 
2508365657500: system.ruby.l0_cntrl1: MESI_Two_Level-L00cache.sm:221: delay inport addr 791b4140 
2508365660000: system.ruby.l0_cntrl0: MESI_Two_Level-L00cache.sm:221: delay inport addr 1002040 
2508365662500: system.ruby.l0_cntrl1: MESI_Two_Level-L00cache.sm:221: delay inport addr 791b4440 
2508365664500: system.ruby.l0_cntrl1: MESI_Two_Level-L00cache.sm:221: delay inport addr 1f5ba80 
2508365671500: system.ruby.l0_cntrl1: MESI_Two_Level-L00cache.sm:221: delay inport addr 791b4300 
2508365682000: system.ruby.l0_cntrl0: MESI_Two_Level-L00cache.sm:221: delay inport addr 7cb52000 
2508365714000: system.ruby.l0_cntrl0: MESI_Two_Level-L00cache.sm:221: delay inport addr 1102500 
2508365718500: system.ruby.l0_cntrl0: MESI_Two_Level-L00cache.sm:221: delay inport addr 7d50ef40 
2508365742500: system.ruby.l0_cntrl1: MESI_Two_Level-L00cache.sm:221: delay inport addr 774a4e80 
2508365746000: system.ruby.l0_cntrl1: MESI_Two_Level-L00cache.sm:221: delay inport addr 774a4ec0 
2508365748000: system.ruby.l0_cntrl1: MESI_Two_Level-L00cache.sm:221: delay inport addr 774a4f00 
2508365752500: system.ruby.l0_cntrl1: MESI_Two_Level-L00cache.sm:221: delay inport addr 791b44c0 
2508365757500: system.ruby.l0_cntrl1: MESI_Two_Level-L00cache.sm:221: delay inport addr 774a4f80 
2508365765000: system.ruby.l0_cntrl1: MESI_Two_Level-L00cache.sm:221: delay inport addr 1f5bac0 
2508365770000: system.ruby.l0_cntrl1: MESI_Two_Level-L00cache.sm:221: delay inport addr 78d12dc0 
2508365775000: system.ruby.l0_cntrl0: MESI_Two_Level-L00cache.sm:221: delay inport addr 1102540 
2508365803500: system.ruby.l0_cntrl0: MESI_Two_Level-L00cache.sm:221: delay inport addr 200d080 
2508365829000: system.ruby.l0_cntrl1: MESI_Two_Level-L00cache.sm:221: delay inport addr 1f5bb00 
2508365852000: system.ruby.l0_cntrl0: MESI_Two_Level-L00cache.sm:221: delay inport addr 7d50ee40 
2508365856500: system.ruby.l0_cntrl1: MESI_Two_Level-L00cache.sm:221: delay inport addr 79485d40 
2508365863000: system.ruby.l0_cntrl1: MESI_Two_Level-L00cache.sm:221: delay inport addr 778f6700 
2508365870500: system.ruby.l0_cntrl1: MESI_Two_Level-L00cache.sm:221: delay inport addr 77ac4880 
2508365875500: system.ruby.l0_cntrl0: MESI_Two_Level-L00cache.sm:221: delay inport addr 11018c0 
2508365901000: system.ruby.l0_cntrl0: MESI_Two_Level-L00cache.sm:221: delay inport addr 7da0f100 
2508365908500: system.ruby.l0_cntrl0: MESI_Two_Level-L00cache.sm:221: delay inport addr 7caae780 
2508365926000: system.ruby.l0_cntrl1: MESI_Two_Level-L00cache.sm:221: delay inport addr 1f609c0 
2508365935000: system.ruby.l0_cntrl1: MESI_Two_Level-L00cache.sm:221: delay inport addr 77ac4480 
2508365961500: system.ruby.l0_cntrl1: MESI_Two_Level-L00cache.sm:221: delay inport addr 77ac4640 
2508365966500: system.ruby.l0_cntrl0: MESI_Two_Level-L00cache.sm:221: delay inport addr 1101900 
2508365974000: system.ruby.l0_cntrl0: MESI_Two_Level-L00cache.sm:221: delay inport addr 10aafc0 
2508365992500: system.ruby.l0_cntrl0: MESI_Two_Level-L00cache.sm:221: delay inport addr 20f1d40 
2508365998500: system.ruby.l0_cntrl0: MESI_Two_Level-L00cache.sm:221: delay inport addr 7caae6c0 
2508366012000: system.ruby.l0_cntrl1: MESI_Two_Level-L00cache.sm:221: delay inport addr 1f60a00 
2508366019500: system.ruby.l0_cntrl1: MESI_Two_Level-L00cache.sm:221: delay inport addr 77ac4540 
2508366049500: system.ruby.l0_cntrl0: MESI_Two_Level-L00cache.sm:221: delay inport addr 10ab000 
2508366052000: system.ruby.l0_cntrl1: MESI_Two_Level-L00cache.sm:221: delay inport addr 774a8540 
2508366075500: system.ruby.l0_cntrl1: MESI_Two_Level-L00cache.sm:221: delay inport addr 1f60a40 
2508366092000: system.ruby.l0_cntrl0: MESI_Two_Level-L00cache.sm:221: delay inport addr 7caae240 
2508366113500: system.ruby.l0_cntrl0: MESI_Two_Level-L00cache.sm:221: delay inport addr 20d9180 
2508366121000: system.ruby.l0_cntrl0: MESI_Two_Level-L00cache.sm:221: delay inport addr 20f1580 
2508366146000: system.ruby.l0_cntrl0: MESI_Two_Level-L00cache.sm:221: delay inport addr 10b2240 
2508366157000: system.ruby.l0_cntrl1: MESI_Two_Level-L00cache.sm:221: delay inport addr 1f60a80 
2508366168000: system.ruby.l0_cntrl0: MESI_Two_Level-L00cache.sm:221: delay inport addr 204bc40 
2508366174500: system.ruby.l0_cntrl0: MESI_Two_Level-L00cache.sm:221: delay inport addr 204bc80 
2508366205000: system.ruby.l0_cntrl0: MESI_Two_Level-L00cache.sm:221: delay inport addr 7d50ef00 
2508366241000: system.ruby.l0_cntrl0: MESI_Two_Level-L00cache.sm:221: delay inport addr 1800080 
2508366248500: system.ruby.l0_cntrl1: MESI_Two_Level-L00cache.sm:221: delay inport addr 1f60ac0 
2508366331500: system.ruby.l0_cntrl0: MESI_Two_Level-L00cache.sm:221: delay inport addr 18000c0 
2508366333500: system.ruby.l0_cntrl0: MESI_Two_Level-L00cache.sm:221: delay inport addr 7d50efc0 
2508366339000: system.ruby.l0_cntrl0: MESI_Two_Level-L00cache.sm:221: delay inport addr 1001780 
2508366341000: system.ruby.l0_cntrl1: MESI_Two_Level-L00cache.sm:221: delay inport addr 1f60b00 
2508366405500: system.ruby.l0_cntrl1: MESI_Two_Level-L00cache.sm:221: delay inport addr 1f60b40 
2508366430500: system.ruby.l0_cntrl0: MESI_Two_Level-L00cache.sm:221: delay inport addr 10017c0 
2508366434000: system.ruby.l0_cntrl0: MESI_Two_Level-L00cache.sm:221: delay inport addr 1101740 
2508366441500: system.ruby.l0_cntrl1: MESI_Two_Level-L00cache.sm:221: delay inport addr 1f61e40 
2508366524500: system.ruby.l0_cntrl0: MESI_Two_Level-L00cache.sm:221: delay inport addr 1101780 
2508366532000: system.ruby.l0_cntrl1: MESI_Two_Level-L00cache.sm:221: delay inport addr 1f61e80 
2508366592000: system.ruby.l0_cntrl0: MESI_Two_Level-L00cache.sm:221: delay inport addr 11017c0 
2508366599500: system.ruby.l0_cntrl1: MESI_Two_Level-L00cache.sm:221: delay inport addr 1f61ec0 
2508366623000: system.ruby.l0_cntrl0: MESI_Two_Level-L00cache.sm:221: delay inport addr 20d9140 
2508366630500: system.ruby.l0_cntrl1: MESI_Two_Level-L00cache.sm:221: delay inport addr 791b4400 
2508366656000: system.ruby.l0_cntrl0: MESI_Two_Level-L00cache.sm:221: delay inport addr 1101800 
2508366663500: system.ruby.l0_cntrl1: MESI_Two_Level-L00cache.sm:221: delay inport addr 1f61f00 
2508366696500: system.ruby.l0_cntrl0: MESI_Two_Level-L00cache.sm:221: delay inport addr 1102400 
2508366721500: system.ruby.l0_cntrl1: MESI_Two_Level-L00cache.sm:221: delay inport addr 774a8500 
2508366731500: system.ruby.l0_cntrl1: MESI_Two_Level-L00cache.sm:221: delay inport addr 1f61f40 
2508366760000: system.ruby.l0_cntrl1: MESI_Two_Level-L00cache.sm:221: delay inport addr 78d12e00 
2508366761000: system.ruby.l0_cntrl0: MESI_Two_Level-L00cache.sm:221: delay inport addr 1102440 
2508366784000: system.ruby.l0_cntrl1: MESI_Two_Level-L00cache.sm:221: delay inport addr 791b4180 
2508366794500: system.ruby.l0_cntrl1: MESI_Two_Level-L00cache.sm:221: delay inport addr 1f61f80 
2508366850000: system.ruby.l0_cntrl1: MESI_Two_Level-L00cache.sm:221: delay inport addr 77a29c80 
2508366855000: system.ruby.l0_cntrl1: MESI_Two_Level-L00cache.sm:221: delay inport addr 1f61fc0 
2508366889500: system.ruby.l0_cntrl0: MESI_Two_Level-L00cache.sm:221: delay inport addr 1800100 
2508366915500: system.ruby.l0_cntrl1: MESI_Two_Level-L00cache.sm:221: delay inport addr 77ac4280 
2508366919000: system.ruby.l0_cntrl1: MESI_Two_Level-L00cache.sm:221: delay inport addr 1f60000 
2508366954000: system.ruby.l0_cntrl1: MESI_Two_Level-L00cache.sm:221: delay inport addr 1f59980 
2508366976500: system.ruby.l0_cntrl0: MESI_Two_Level-L00cache.sm:221: delay inport addr 1800140 
2508366984000: system.ruby.l0_cntrl0: MESI_Two_Level-L00cache.sm:221: delay inport addr 7da05000 
2508367045500: system.ruby.l0_cntrl1: MESI_Two_Level-L00cache.sm:221: delay inport addr 1f599c0 
2508367056500: system.ruby.l0_cntrl1: MESI_Two_Level-L00cache.sm:221: delay inport addr 1f74b40 
2508367069000: system.ruby.l0_cntrl0: MESI_Two_Level-L00cache.sm:221: delay inport addr 7fff9000 
2508367147500: system.ruby.l0_cntrl1: MESI_Two_Level-L00cache.sm:221: delay inport addr 1f74b80 
2508367150000: system.ruby.l0_cntrl1: MESI_Two_Level-L00cache.sm:221: delay inport addr 791b46c0 
2508367152500: system.ruby.l0_cntrl0: MESI_Two_Level-L00cache.sm:221: delay inport addr 7fff8000 
2508367161000: system.ruby.l0_cntrl1: MESI_Two_Level-L00cache.sm:221: delay inport addr 77ac4500 
2508367196000: system.ruby.l0_cntrl1: MESI_Two_Level-L00cache.sm:221: delay inport addr 791b4700 
2508367239000: system.ruby.l0_cntrl1: MESI_Two_Level-L00cache.sm:221: delay inport addr 1f74bc0 
2508367287500: system.ruby.l0_cntrl0: MESI_Two_Level-L00cache.sm:221: delay inport addr 7fef6000 
2508367330500: system.ruby.l0_cntrl1: MESI_Two_Level-L00cache.sm:221: delay inport addr 1f74c00 
2508367335500: system.ruby.l0_cntrl1: MESI_Two_Level-L00cache.sm:221: delay inport addr 79485e00 
2508367337500: system.ruby.l0_cntrl1: MESI_Two_Level-L00cache.sm:221: delay inport addr 1f73f00 
2508367398000: system.ruby.l0_cntrl1: MESI_Two_Level-L00cache.sm:221: delay inport addr 1f70580 
2508367427000: system.ruby.l0_cntrl1: MESI_Two_Level-L00cache.sm:221: delay inport addr 1f73f40 
2508367449500: system.ruby.l0_cntrl0: MESI_Two_Level-L00cache.sm:221: delay inport addr 1800180 
2508367463000: system.ruby.l0_cntrl1: MESI_Two_Level-L00cache.sm:221: delay inport addr 1f73640 
2508367525000: system.ruby.l0_cntrl1: MESI_Two_Level-L00cache.sm:221: delay inport addr 1f73680 
2508367538500: system.ruby.l0_cntrl0: MESI_Two_Level-L00cache.sm:221: delay inport addr 7cb537c0 
2508367589000: system.ruby.l0_cntrl1: MESI_Two_Level-L00cache.sm:221: delay inport addr 1f736c0 
2508367628000: system.ruby.l0_cntrl0: MESI_Two_Level-L00cache.sm:221: delay inport addr 7cb142c0 
2508367717500: system.ruby.l0_cntrl0: MESI_Two_Level-L00cache.sm:221: delay inport addr 7cb1b140 
2508367732000: system.ruby.l0_cntrl1: MESI_Two_Level-L00cache.sm:221: delay inport addr 1f74c40 
2508367794500: system.ruby.l0_cntrl1: MESI_Two_Level-L00cache.sm:221: delay inport addr 774a8000 
2508367807000: system.ruby.l0_cntrl0: MESI_Two_Level-L00cache.sm:221: delay inport addr 7cb2cc00 
2508367857000: system.ruby.l0_cntrl1: MESI_Two_Level-L00cache.sm:221: delay inport addr 774a8300 
2508367859000: system.ruby.l0_cntrl1: MESI_Two_Level-L00cache.sm:221: delay inport addr 774a82c0 
2508367862500: system.ruby.l0_cntrl1: MESI_Two_Level-L00cache.sm:221: delay inport addr 774a8040 
2508367882500: system.ruby.l0_cntrl0: MESI_Two_Level-L00cache.sm:221: delay inport addr 1a54c40 
2508367954000: system.ruby.l0_cntrl1: MESI_Two_Level-L00cache.sm:221: delay inport addr 78ca0700 
2508367972000: system.ruby.l0_cntrl0: MESI_Two_Level-L00cache.sm:221: delay inport addr 7cb53000 
2508367978000: system.ruby.l0_cntrl0: MESI_Two_Level-L00cache.sm:221: delay inport addr 7cb14f80 
2508368043500: system.ruby.l0_cntrl1: MESI_Two_Level-L00cache.sm:221: delay inport addr 79441ec0 
2508368061500: system.ruby.l0_cntrl0: MESI_Two_Level-L00cache.sm:221: delay inport addr 7cb18080 
2508368133500: system.ruby.l0_cntrl1: MESI_Two_Level-L00cache.sm:221: delay inport addr 1a6ba80 
2508368136000: system.ruby.l0_cntrl1: MESI_Two_Level-L00cache.sm:221: delay inport addr 79485cc0 
2508368141000: system.ruby.l0_cntrl0: MESI_Two_Level-L00cache.sm:221: delay inport addr 7cb19140 
2508368226000: system.ruby.l0_cntrl1: MESI_Two_Level-L00cache.sm:221: delay inport addr 77b72c00 
2508368228000: system.ruby.l0_cntrl1: MESI_Two_Level-L00cache.sm:221: delay inport addr 1f60540 
2508368233500: system.ruby.l0_cntrl0: MESI_Two_Level-L00cache.sm:221: delay inport addr 77c1cfc0 
2508368290000: system.ruby.l0_cntrl1: MESI_Two_Level-L00cache.sm:221: delay inport addr 1f60580 
2508368297500: system.ruby.l0_cntrl0: MESI_Two_Level-L00cache.sm:221: delay inport addr 7cb53540 
2508368353500: system.ruby.l0_cntrl1: MESI_Two_Level-L00cache.sm:221: delay inport addr 1f605c0 
2508368361000: system.ruby.l0_cntrl0: MESI_Two_Level-L00cache.sm:221: delay inport addr 7cb167c0 
2508368368500: system.ruby.l0_cntrl1: MESI_Two_Level-L00cache.sm:221: delay inport addr 1a6bb80 
2508368386500: system.ruby.l0_cntrl1: MESI_Two_Level-L00cache.sm:221: delay inport addr 1a6bc40 
2508368417500: system.ruby.l0_cntrl1: MESI_Two_Level-L00cache.sm:221: delay inport addr 1f60600 
2508368423000: system.ruby.l0_cntrl0: MESI_Two_Level-L00cache.sm:221: delay inport addr 7cb15140 
2508368453500: system.ruby.l0_cntrl1: MESI_Two_Level-L00cache.sm:221: delay inport addr 1a6cc40 
2508368481500: system.ruby.l0_cntrl1: MESI_Two_Level-L00cache.sm:221: delay inport addr 1f60640 
2508368512500: system.ruby.l0_cntrl0: MESI_Two_Level-L00cache.sm:221: delay inport addr 7cb1edc0 
2508368545500: system.ruby.l0_cntrl1: MESI_Two_Level-L00cache.sm:221: delay inport addr 1f60680 
2508368548500: system.ruby.l0_cntrl1: MESI_Two_Level-L00cache.sm:221: delay inport addr 1f61cc0 
2508368602000: system.ruby.l0_cntrl0: MESI_Two_Level-L00cache.sm:221: delay inport addr 7bc35380 
2508368612000: system.ruby.l0_cntrl1: MESI_Two_Level-L00cache.sm:221: delay inport addr 1f61d00 
2508368640000: system.ruby.l0_cntrl1: MESI_Two_Level-L00cache.sm:221: delay inport addr 1aa8980 
2508368675500: system.ruby.l0_cntrl1: MESI_Two_Level-L00cache.sm:221: delay inport addr 1f61d40 
2508368691500: system.ruby.l0_cntrl0: MESI_Two_Level-L00cache.sm:221: delay inport addr 7bc353c0 
2508368724500: system.ruby.l0_cntrl1: MESI_Two_Level-L00cache.sm:221: delay inport addr 79441f40 
2508368755500: system.ruby.l0_cntrl0: MESI_Two_Level-L00cache.sm:221: delay inport addr 7bc35400 
2508368764500: system.ruby.l0_cntrl1: MESI_Two_Level-L00cache.sm:221: delay inport addr 1f73c80 
2508368772000: system.ruby.l0_cntrl0: MESI_Two_Level-L00cache.sm:221: delay inport addr 7cb1a080 
2508368808500: system.ruby.l0_cntrl1: MESI_Two_Level-L00cache.sm:221: delay inport addr 2212b40 
2508368826500: system.ruby.l0_cntrl1: MESI_Two_Level-L00cache.sm:221: delay inport addr 1f73cc0 
2508368861500: system.ruby.l0_cntrl0: MESI_Two_Level-L00cache.sm:221: delay inport addr 7bc4ad80 
2508368885500: system.ruby.l0_cntrl1: MESI_Two_Level-L00cache.sm:221: delay inport addr 1f61d80 
2508368922500: system.ruby.l0_cntrl1: MESI_Two_Level-L00cache.sm:221: delay inport addr 2215ac0 
2508368946000: system.ruby.l0_cntrl0: MESI_Two_Level-L00cache.sm:221: delay inport addr 7bc4adc0 
2508368963500: system.ruby.l0_cntrl1: MESI_Two_Level-L00cache.sm:221: delay inport addr 1f60900 
2508368965500: system.ruby.l0_cntrl1: MESI_Two_Level-L00cache.sm:221: delay inport addr 1f606c0 
2508369009000: system.ruby.l0_cntrl1: MESI_Two_Level-L00cache.sm:221: delay inport addr 774a8600 
2508369016500: system.ruby.l0_cntrl0: MESI_Two_Level-L00cache.sm:221: delay inport addr 7bc4ae00 
2508369039500: system.ruby.l0_cntrl0: MESI_Two_Level-L00cache.sm:221: delay inport addr 7cb1eb40 
2508369047000: system.ruby.l0_cntrl1: MESI_Two_Level-L00cache.sm:221: delay inport addr 1f60940 
2508369073500: system.ruby.l0_cntrl1: MESI_Two_Level-L00cache.sm:221: delay inport addr 1f61e00 
2508369130000: system.ruby.l0_cntrl0: MESI_Two_Level-L00cache.sm:221: delay inport addr 1b35140 
2508369145500: system.ruby.l0_cntrl1: MESI_Two_Level-L00cache.sm:221: delay inport addr 22158c0 
2508369173000: system.ruby.l0_cntrl1: MESI_Two_Level-L00cache.sm:221: delay inport addr 77ac4600 
2508369199000: system.ruby.l0_cntrl0: MESI_Two_Level-L00cache.sm:221: delay inport addr 7cb1a640 
2508369220500: system.ruby.l0_cntrl0: MESI_Two_Level-L00cache.sm:221: delay inport addr 1b35180 
2508369225500: system.ruby.l0_cntrl0: MESI_Two_Level-L00cache.sm:221: delay inport addr 1b34c80 
2508369255500: system.ruby.l0_cntrl1: MESI_Two_Level-L00cache.sm:221: delay inport addr 1f60980 
2508369289000: system.ruby.l0_cntrl0: MESI_Two_Level-L00cache.sm:221: delay inport addr 1f52640 
2508369296500: system.ruby.l0_cntrl1: MESI_Two_Level-L00cache.sm:221: delay inport addr 1f60140 
2508369301500: system.ruby.l0_cntrl0: MESI_Two_Level-L00cache.sm:221: delay inport addr 1b34cc0 
2508369318000: system.ruby.l0_cntrl0: MESI_Two_Level-L00cache.sm:221: delay inport addr 1f52400 
2508369380500: system.ruby.l0_cntrl0: MESI_Two_Level-L00cache.sm:221: delay inport addr 1a544c0 
2508369388000: system.ruby.l0_cntrl1: MESI_Two_Level-L00cache.sm:221: delay inport addr 1f60180 
2508369470000: system.ruby.l0_cntrl0: MESI_Two_Level-L00cache.sm:221: delay inport addr 7cb2ac80 
2508369472000: system.ruby.l0_cntrl0: MESI_Two_Level-L00cache.sm:221: delay inport addr 1a54500 
2508369478500: system.ruby.l0_cntrl1: MESI_Two_Level-L00cache.sm:221: delay inport addr 1f60b80 
2508369480500: system.ruby.l0_cntrl1: MESI_Two_Level-L00cache.sm:221: delay inport addr 1f601c0 
2508369518500: system.ruby.l0_cntrl1: MESI_Two_Level-L00cache.sm:221: delay inport addr 774a83c0 
2508369561500: system.ruby.l0_cntrl0: MESI_Two_Level-L00cache.sm:221: delay inport addr 1b92380 
2508369584000: system.ruby.l0_cntrl1: MESI_Two_Level-L00cache.sm:221: delay inport addr 77a29cc0 
2508369590500: system.ruby.l0_cntrl1: MESI_Two_Level-L00cache.sm:221: delay inport addr 1f78f40 
2508369681000: system.ruby.l0_cntrl1: MESI_Two_Level-L00cache.sm:221: delay inport addr 1f78f80 
2508369694500: system.ruby.l0_cntrl0: MESI_Two_Level-L00cache.sm:221: delay inport addr 7cb53fc0 
2508369744000: system.ruby.l0_cntrl1: MESI_Two_Level-L00cache.sm:221: delay inport addr 1f78fc0 
2508369777500: system.ruby.l0_cntrl1: MESI_Two_Level-L00cache.sm:221: delay inport addr 78c0d080 
2508369783500: system.ruby.l0_cntrl0: MESI_Two_Level-L00cache.sm:221: delay inport addr 1a01000 
2508369867000: system.ruby.l0_cntrl1: MESI_Two_Level-L00cache.sm:221: delay inport addr 1a9c000 
2508369875000: system.ruby.l0_cntrl0: MESI_Two_Level-L00cache.sm:221: delay inport addr 1a01040 
2508369958000: system.ruby.l0_cntrl1: MESI_Two_Level-L00cache.sm:221: delay inport addr 1a9c040 
2508369970000: system.ruby.l0_cntrl0: MESI_Two_Level-L00cache.sm:221: delay inport addr 1800000 
2508370021500: system.ruby.l0_cntrl1: MESI_Two_Level-L00cache.sm:221: delay inport addr 1a9c080 
2508370050000: system.ruby.l0_cntrl1: MESI_Two_Level-L00cache.sm:221: delay inport addr 1a9bf00 
2508370060500: system.ruby.l0_cntrl0: MESI_Two_Level-L00cache.sm:221: delay inport addr 1800040 
2508370143000: system.ruby.l0_cntrl1: MESI_Two_Level-L00cache.sm:221: delay inport addr 1a9bf40 
2508370148000: system.ruby.l0_cntrl1: MESI_Two_Level-L00cache.sm:221: delay inport addr 1a9c5c0 
2508370165500: system.ruby.l0_cntrl0: MESI_Two_Level-L00cache.sm:221: delay inport addr 1001800 
2508370214000: system.ruby.l0_cntrl0: MESI_Two_Level-L00cache.sm:221: delay inport addr 1101940 
2508370219000: system.ruby.l0_cntrl1: MESI_Two_Level-L00cache.sm:221: delay inport addr 1a9c600 
2508370240500: system.ruby.l0_cntrl1: MESI_Two_Level-L00cache.sm:221: delay inport addr 77b72d80 
2508370315500: system.ruby.l0_cntrl0: MESI_Two_Level-L00cache.sm:221: delay inport addr 1102580 
2508370317500: system.ruby.l0_cntrl1: MESI_Two_Level-L00cache.sm:221: delay inport addr 79441f80 
2508370327500: system.ruby.l0_cntrl0: MESI_Two_Level-L00cache.sm:221: delay inport addr 10f8380 
2508370330500: system.ruby.l0_cntrl1: MESI_Two_Level-L00cache.sm:221: delay inport addr 778f66c0 
2508370385000: system.ruby.l0_cntrl0: MESI_Two_Level-L00cache.sm:221: delay inport addr 1101980 
2508370407000: system.ruby.l0_cntrl1: MESI_Two_Level-L00cache.sm:221: delay inport addr 221e880 
2508370412000: system.ruby.l0_cntrl1: MESI_Two_Level-L00cache.sm:221: delay inport addr 1a9bf80 
2508370430500: system.ruby.l0_cntrl1: MESI_Two_Level-L00cache.sm:221: delay inport addr 774ca5c0 
2508370444000: system.ruby.l0_cntrl0: MESI_Two_Level-L00cache.sm:221: delay inport addr 1001f00 
2508370476000: system.ruby.l0_cntrl1: MESI_Two_Level-L00cache.sm:221: delay inport addr 1a9bfc0 
2508370483000: system.ruby.l0_cntrl1: MESI_Two_Level-L00cache.sm:221: delay inport addr 78c0d500 
2508370509500: system.ruby.l0_cntrl1: MESI_Two_Level-L00cache.sm:221: delay inport addr 774b88c0 
2508370525000: system.ruby.l0_cntrl1: MESI_Two_Level-L00cache.sm:221: delay inport addr 783b8c40 
2508370534000: system.ruby.l0_cntrl0: MESI_Two_Level-L00cache.sm:221: delay inport addr 1001f40 
2508370576500: system.ruby.l0_cntrl1: MESI_Two_Level-L00cache.sm:221: delay inport addr 78c0d280 
2508370628000: system.ruby.l0_cntrl0: MESI_Two_Level-L00cache.sm:221: delay inport addr 1101680 
2508370664000: system.ruby.l0_cntrl1: MESI_Two_Level-L00cache.sm:221: delay inport addr 1f5aa80 
2508370720000: system.ruby.l0_cntrl0: MESI_Two_Level-L00cache.sm:221: delay inport addr 11016c0 
2508370748000: system.ruby.l0_cntrl1: MESI_Two_Level-L00cache.sm:221: delay inport addr 1f5aac0 
2508370784000: system.ruby.l0_cntrl0: MESI_Two_Level-L00cache.sm:221: delay inport addr 1101700 
2508370811000: system.ruby.l0_cntrl1: MESI_Two_Level-L00cache.sm:221: delay inport addr 1f5ab00 
2508370840500: system.ruby.l0_cntrl1: MESI_Two_Level-L00cache.sm:221: delay inport addr 77a7b940 
2508370873000: system.ruby.l0_cntrl0: MESI_Two_Level-L00cache.sm:221: delay inport addr 1c00180 
2508370876500: system.ruby.l0_cntrl1: MESI_Two_Level-L00cache.sm:221: delay inport addr 77a7bf40 
2508370878500: system.ruby.l0_cntrl1: MESI_Two_Level-L00cache.sm:221: delay inport addr 1f5ab40 
2508370905000: system.ruby.l0_cntrl1: MESI_Two_Level-L00cache.sm:221: delay inport addr 77a7b040 
2508370964500: system.ruby.l0_cntrl0: MESI_Two_Level-L00cache.sm:221: delay inport addr 1185340 
2508371013000: system.ruby.l0_cntrl1: MESI_Two_Level-L00cache.sm:221: delay inport addr 79485d00 
2508371059000: system.ruby.l0_cntrl0: MESI_Two_Level-L00cache.sm:221: delay inport addr 1185280 
2508371096500: system.ruby.l0_cntrl1: MESI_Two_Level-L00cache.sm:221: delay inport addr 1f91c80 
2508371150000: system.ruby.l0_cntrl0: MESI_Two_Level-L00cache.sm:221: delay inport addr 11852c0 
2508371161000: system.ruby.l0_cntrl0: MESI_Two_Level-L00cache.sm:221: delay inport addr 11a0f40 
2508371167000: system.ruby.l0_cntrl1: MESI_Two_Level-L00cache.sm:221: delay inport addr 1f5ab80 
2508371230500: system.ruby.l0_cntrl1: MESI_Two_Level-L00cache.sm:221: delay inport addr 1f5abc0 
2508371252500: system.ruby.l0_cntrl0: MESI_Two_Level-L00cache.sm:221: delay inport addr 11a0f80 
2508371257500: system.ruby.l0_cntrl0: MESI_Two_Level-L00cache.sm:221: delay inport addr 11a0700 
2508371269500: system.ruby.l0_cntrl1: MESI_Two_Level-L00cache.sm:221: delay inport addr 77a7ba00 
2508371272500: system.ruby.l0_cntrl1: MESI_Two_Level-L00cache.sm:221: delay inport addr 77a7b9c0 
2508371280000: system.ruby.l0_cntrl1: MESI_Two_Level-L00cache.sm:221: delay inport addr 1f59000 
2508371353000: system.ruby.l0_cntrl0: MESI_Two_Level-L00cache.sm:221: delay inport addr 7d558500 
2508371360500: system.ruby.l0_cntrl0: MESI_Two_Level-L00cache.sm:221: delay inport addr 11a0000 
2508371401500: system.ruby.l0_cntrl1: MESI_Two_Level-L00cache.sm:221: delay inport addr 1f5ac00 
2508371423000: system.ruby.l0_cntrl0: MESI_Two_Level-L00cache.sm:221: delay inport addr 11a0040 
2508371446000: system.ruby.l0_cntrl0: MESI_Two_Level-L00cache.sm:221: delay inport addr 7d5b0a00 
2508371465500: system.ruby.l0_cntrl1: MESI_Two_Level-L00cache.sm:221: delay inport addr 1f5ac40 
2508371473500: system.ruby.l0_cntrl1: MESI_Two_Level-L00cache.sm:221: delay inport addr 1f72c40 
2508371536500: system.ruby.l0_cntrl0: MESI_Two_Level-L00cache.sm:221: delay inport addr 7d544000 
2508371541000: system.ruby.l0_cntrl1: MESI_Two_Level-L00cache.sm:221: delay inport addr 1f72cc0 
2508371601000: system.ruby.l0_cntrl0: MESI_Two_Level-L00cache.sm:221: delay inport addr 11a0740 
2508371631000: system.ruby.l0_cntrl1: MESI_Two_Level-L00cache.sm:221: delay inport addr 1f72d00 
2508371676500: system.ruby.l0_cntrl0: MESI_Two_Level-L00cache.sm:221: delay inport addr 7d544200 
2508371710000: system.ruby.l0_cntrl0: MESI_Two_Level-L00cache.sm:221: delay inport addr 1643640 
2508371715000: system.ruby.l0_cntrl1: MESI_Two_Level-L00cache.sm:221: delay inport addr 1f5ac80 
2508371768500: system.ruby.l0_cntrl0: MESI_Two_Level-L00cache.sm:221: delay inport addr 2404f00 
2508371773500: system.ruby.l0_cntrl1: MESI_Two_Level-L00cache.sm:221: delay inport addr 1f5acc0 
2508371858000: system.ruby.l0_cntrl0: MESI_Two_Level-L00cache.sm:221: delay inport addr 7cbe6980 
2508371865500: system.ruby.l0_cntrl1: MESI_Two_Level-L00cache.sm:221: delay inport addr 1f5ad00 
2508371870500: system.ruby.l0_cntrl1: MESI_Two_Level-L00cache.sm:221: delay inport addr 1f5ae80 
2508371948000: system.ruby.l0_cntrl0: MESI_Two_Level-L00cache.sm:221: delay inport addr 7cb34d40 
2508371955500: system.ruby.l0_cntrl1: MESI_Two_Level-L00cache.sm:221: delay inport addr 1f5aec0 
2508371960500: system.ruby.l0_cntrl1: MESI_Two_Level-L00cache.sm:221: delay inport addr 1f5ad40 
2508371968000: system.ruby.l0_cntrl1: MESI_Two_Level-L00cache.sm:221: delay inport addr 774a8380 
2508371973000: system.ruby.l0_cntrl1: MESI_Two_Level-L00cache.sm:221: delay inport addr 1f72ac0 
2508372301000: system.ruby.l0_cntrl0: MESI_Two_Level-L00cache.sm:221: delay inport addr 7cb34d00 
2508372307000: system.ruby.l0_cntrl1: MESI_Two_Level-L00cache.sm:221: delay inport addr 774a84c0 
2508372314500: system.ruby.l0_cntrl0: MESI_Two_Level-L00cache.sm:221: delay inport addr 1184d00 
2508372322000: system.ruby.l0_cntrl1: MESI_Two_Level-L00cache.sm:221: delay inport addr 1f72b00 
2508372391500: system.ruby.l0_cntrl0: MESI_Two_Level-L00cache.sm:221: delay inport addr 1184d40 
2508372399000: system.ruby.l0_cntrl1: MESI_Two_Level-L00cache.sm:221: delay inport addr 1f5af00 
2508372455000: system.ruby.l0_cntrl0: MESI_Two_Level-L00cache.sm:221: delay inport addr 1184d80 
2508372472500: system.ruby.l0_cntrl0: MESI_Two_Level-L00cache.sm:221: delay inport addr 1183ec0 
2508372505500: system.ruby.l0_cntrl1: MESI_Two_Level-L00cache.sm:221: delay inport addr 1f5ad80 
2508372548000: system.ruby.l0_cntrl0: MESI_Two_Level-L00cache.sm:221: delay inport addr 1183f00 
2508372583000: system.ruby.l0_cntrl1: MESI_Two_Level-L00cache.sm:221: delay inport addr 1f5adc0 
2508372644500: system.ruby.l0_cntrl0: MESI_Two_Level-L00cache.sm:221: delay inport addr 7d605600 
2508372646500: system.ruby.l0_cntrl1: MESI_Two_Level-L00cache.sm:221: delay inport addr 1f5ae00 
2508372675000: system.ruby.l0_cntrl1: MESI_Two_Level-L00cache.sm:221: delay inport addr 791b4280 
2508372681500: system.ruby.l0_cntrl1: MESI_Two_Level-L00cache.sm:221: delay inport addr 791b4200 
2508372693000: system.ruby.l0_cntrl0: MESI_Two_Level-L00cache.sm:221: delay inport addr 1184dc0 
2508372698000: system.ruby.l0_cntrl0: MESI_Two_Level-L00cache.sm:221: delay inport addr 1184bc0 
2508372705000: system.ruby.l0_cntrl1: MESI_Two_Level-L00cache.sm:221: delay inport addr 1f5ae40 
2508372721000: system.ruby.l0_cntrl1: MESI_Two_Level-L00cache.sm:221: delay inport addr 791b4800 
2508372726000: system.ruby.l0_cntrl1: MESI_Two_Level-L00cache.sm:221: delay inport addr 77a29e00 
2508372728500: system.ruby.l0_cntrl1: MESI_Two_Level-L00cache.sm:221: delay inport addr 791b4780 
2508372748000: system.ruby.l0_cntrl1: MESI_Two_Level-L00cache.sm:221: delay inport addr 774a4e00 
2508372750500: system.ruby.l0_cntrl1: MESI_Two_Level-L00cache.sm:221: delay inport addr 774a4e40 
2508372762000: system.ruby.l0_cntrl0: MESI_Two_Level-L00cache.sm:221: delay inport addr 1184c00 
2508372775000: system.ruby.l0_cntrl1: MESI_Two_Level-L00cache.sm:221: delay inport addr 774a8100 
2508372775500: system.ruby.l0_cntrl0: MESI_Two_Level-L00cache.sm:221: delay inport addr 1c5d040 
2508372781500: system.ruby.l0_cntrl1: MESI_Two_Level-L00cache.sm:221: delay inport addr 774a8080 
2508372783500: system.ruby.l0_cntrl0: MESI_Two_Level-L00cache.sm:221: delay inport addr 7d50ee00 
2508372839500: system.ruby.l0_cntrl1: MESI_Two_Level-L00cache.sm:221: delay inport addr 77ac4c40 
2508372903000: system.ruby.l0_cntrl0: MESI_Two_Level-L00cache.sm:221: delay inport addr 138c240 
2508372918000: system.ruby.l0_cntrl1: MESI_Two_Level-L00cache.sm:221: delay inport addr 77ad6240 
2508372923000: system.ruby.l0_cntrl1: MESI_Two_Level-L00cache.sm:221: delay inport addr 77ac4bc0 
2508372987000: system.ruby.l0_cntrl0: MESI_Two_Level-L00cache.sm:221: delay inport addr 7d50a740 
2508372994000: system.ruby.l0_cntrl0: MESI_Two_Level-L00cache.sm:221: delay inport addr 138c280 
2508373006500: system.ruby.l0_cntrl1: MESI_Two_Level-L00cache.sm:221: delay inport addr 77ac4c00 
2508373057500: system.ruby.l0_cntrl0: MESI_Two_Level-L00cache.sm:221: delay inport addr 138c2c0 
2508373063000: system.ruby.l0_cntrl0: MESI_Two_Level-L00cache.sm:221: delay inport addr 22ef5c0 
2508373094500: system.ruby.l0_cntrl1: MESI_Two_Level-L00cache.sm:221: delay inport addr 77ac5680 
2508373127500: system.ruby.l0_cntrl0: MESI_Two_Level-L00cache.sm:221: delay inport addr 138c3c0 
2508373149000: system.ruby.l0_cntrl0: MESI_Two_Level-L00cache.sm:221: delay inport addr 138c300 
2508373190000: system.ruby.l0_cntrl0: MESI_Two_Level-L00cache.sm:221: delay inport addr 138c400 
2508373209000: system.ruby.l0_cntrl0: MESI_Two_Level-L00cache.sm:221: delay inport addr 7caae480 
2508373215000: system.ruby.l0_cntrl1: MESI_Two_Level-L00cache.sm:221: delay inport addr 791b4d40 
2508373225500: system.ruby.l0_cntrl1: MESI_Two_Level-L00cache.sm:221: delay inport addr 77a7ba80 
2508373230000: system.ruby.l0_cntrl1: MESI_Two_Level-L00cache.sm:221: delay inport addr 7969edc0 
2508373237500: system.ruby.l0_cntrl1: MESI_Two_Level-L00cache.sm:221: delay inport addr 77a7bac0 
2508373250000: system.ruby.l0_cntrl1: MESI_Two_Level-L00cache.sm:221: delay inport addr 77a29f80 
2508373257500: system.ruby.l0_cntrl1: MESI_Two_Level-L00cache.sm:221: delay inport addr 1f5af40 
2508373262500: system.ruby.l0_cntrl0: MESI_Two_Level-L00cache.sm:221: delay inport addr 138c440 
2508373278000: system.ruby.l0_cntrl0: MESI_Two_Level-L00cache.sm:221: delay inport addr 1633640 
2508373285500: system.ruby.l0_cntrl0: MESI_Two_Level-L00cache.sm:221: delay inport addr 2093340 
2508373316500: system.ruby.l0_cntrl1: MESI_Two_Level-L00cache.sm:221: delay inport addr 77ac4200 
2508373355000: system.ruby.l0_cntrl0: MESI_Two_Level-L00cache.sm:221: delay inport addr 1633680 
2508373362500: system.ruby.l0_cntrl0: MESI_Two_Level-L00cache.sm:221: delay inport addr 2093880 
2508373392500: system.ruby.l0_cntrl1: MESI_Two_Level-L00cache.sm:221: delay inport addr 783b8c00 
2508373400000: system.ruby.l0_cntrl0: MESI_Two_Level-L00cache.sm:221: delay inport addr 138c100 
2508373432000: system.ruby.l0_cntrl0: MESI_Two_Level-L00cache.sm:221: delay inport addr 138c340 
2508373443000: system.ruby.l0_cntrl1: MESI_Two_Level-L00cache.sm:221: delay inport addr 7bb31fc0 
2508373463000: system.ruby.l0_cntrl0: MESI_Two_Level-L00cache.sm:221: delay inport addr 138c140 
2508373487500: system.ruby.l0_cntrl0: MESI_Two_Level-L00cache.sm:221: delay inport addr 22ef300 
2508373555500: system.ruby.l0_cntrl0: MESI_Two_Level-L00cache.sm:221: delay inport addr 138c180 
2508373557500: system.ruby.l0_cntrl0: MESI_Two_Level-L00cache.sm:221: delay inport addr 1646780 
2508373561500: system.ruby.l0_cntrl1: MESI_Two_Level-L00cache.sm:221: delay inport addr 22540c0 
2508373648000: system.ruby.l0_cntrl0: MESI_Two_Level-L00cache.sm:221: delay inport addr 16467c0 
2508373667000: system.ruby.l0_cntrl1: MESI_Two_Level-L00cache.sm:221: delay inport addr 7fef6140 
2508373743000: system.ruby.l0_cntrl1: MESI_Two_Level-L00cache.sm:221: delay inport addr 7db08000 
2508373855000: system.ruby.l0_cntrl1: MESI_Two_Level-L00cache.sm:221: delay inport addr 7db05000 
2508373867000: system.ruby.l0_cntrl1: MESI_Two_Level-L00cache.sm:221: delay inport addr 7d408fc0 
2508373929000: system.ruby.l0_cntrl1: MESI_Two_Level-L00cache.sm:221: delay inport addr 7d409040 
2508373955500: system.ruby.l0_cntrl0: MESI_Two_Level-L00cache.sm:221: delay inport addr 22ef2c0 
2508373990500: system.ruby.l0_cntrl0: MESI_Two_Level-L00cache.sm:221: delay inport addr 162cd40 
2508374021500: system.ruby.l0_cntrl1: MESI_Two_Level-L00cache.sm:221: delay inport addr 1800f00 
2508374081000: system.ruby.l0_cntrl0: MESI_Two_Level-L00cache.sm:221: delay inport addr 162cd80 
2508374088500: system.ruby.l0_cntrl1: MESI_Two_Level-L00cache.sm:221: delay inport addr 7db0e240 
2508374093500: system.ruby.l0_cntrl1: MESI_Two_Level-L00cache.sm:221: delay inport addr 1801100 
2508374111000: system.ruby.l0_cntrl1: MESI_Two_Level-L00cache.sm:221: delay inport addr 1800f40 
2508374144000: system.ruby.l0_cntrl0: MESI_Two_Level-L00cache.sm:221: delay inport addr 162cdc0 
2508374157500: system.ruby.l0_cntrl1: MESI_Two_Level-L00cache.sm:221: delay inport addr 1801140 
2508374207500: system.ruby.l0_cntrl0: MESI_Two_Level-L00cache.sm:221: delay inport addr 162ce00 
2508374221500: system.ruby.l0_cntrl1: MESI_Two_Level-L00cache.sm:221: delay inport addr 1801180 
2508374270500: system.ruby.l0_cntrl0: MESI_Two_Level-L00cache.sm:221: delay inport addr 162ce40 
2508374334000: system.ruby.l0_cntrl0: MESI_Two_Level-L00cache.sm:221: delay inport addr 162ce80 
2508374339000: system.ruby.l0_cntrl1: MESI_Two_Level-L00cache.sm:221: delay inport addr 7bb307c0 
2508374369500: system.ruby.l0_cntrl1: MESI_Two_Level-L00cache.sm:221: delay inport addr 7bb30000 
2508374397500: system.ruby.l0_cntrl0: MESI_Two_Level-L00cache.sm:221: delay inport addr 162cec0 
2508374401000: system.ruby.l0_cntrl1: MESI_Two_Level-L00cache.sm:221: delay inport addr 7bb30fc0 
2508374460500: system.ruby.l0_cntrl0: MESI_Two_Level-L00cache.sm:221: delay inport addr 162cf00 
2508374515500: system.ruby.l0_cntrl1: MESI_Two_Level-L00cache.sm:221: delay inport addr 101a5c0 
2508374523500: system.ruby.l0_cntrl0: MESI_Two_Level-L00cache.sm:221: delay inport addr 162cf40 
2508374580500: system.ruby.l0_cntrl1: MESI_Two_Level-L00cache.sm:221: delay inport addr 7bb30880 
2508374605500: system.ruby.l0_cntrl1: MESI_Two_Level-L00cache.sm:221: delay inport addr 101a600 
2508374613000: system.ruby.l0_cntrl0: MESI_Two_Level-L00cache.sm:221: delay inport addr 162cf80 
2508374672500: system.ruby.l0_cntrl1: MESI_Two_Level-L00cache.sm:221: delay inport addr 7bb30c80 
2508374677500: system.ruby.l0_cntrl0: MESI_Two_Level-L00cache.sm:221: delay inport addr 162cfc0 
2508374694500: system.ruby.l0_cntrl1: MESI_Two_Level-L00cache.sm:221: delay inport addr 7db0e200 
2508374787000: system.ruby.l0_cntrl1: MESI_Two_Level-L00cache.sm:221: delay inport addr 7d511bc0 
2508374980500: system.ruby.l0_cntrl1: MESI_Two_Level-L00cache.sm:221: delay inport addr 7db1bfc0 
2508374985500: system.ruby.l0_cntrl1: MESI_Two_Level-L00cache.sm:221: delay inport addr 1800f80 
2508375004000: system.ruby.l0_cntrl1: MESI_Two_Level-L00cache.sm:221: delay inport addr 104ba00 
2508375009000: system.ruby.l0_cntrl0: MESI_Two_Level-L00cache.sm:221: delay inport addr 1646880 
2508375083000: system.ruby.l0_cntrl1: MESI_Two_Level-L00cache.sm:221: delay inport addr 7db14c80 
2508375094500: system.ruby.l0_cntrl0: MESI_Two_Level-L00cache.sm:221: delay inport addr 16468c0 
2508375104000: system.ruby.l0_cntrl1: MESI_Two_Level-L00cache.sm:221: delay inport addr 78c8de40 
2508375206000: system.ruby.l0_cntrl0: MESI_Two_Level-L00cache.sm:221: delay inport addr 1058280 
2508375208000: system.ruby.l0_cntrl1: MESI_Two_Level-L00cache.sm:221: delay inport addr 7db0f100 
2508375212000: system.ruby.l0_cntrl1: MESI_Two_Level-L00cache.sm:221: delay inport addr 11019c0 
2508375260500: system.ruby.l0_cntrl0: MESI_Two_Level-L00cache.sm:221: delay inport addr 12c1c00 
2508375270500: system.ruby.l0_cntrl1: MESI_Two_Level-L00cache.sm:221: delay inport addr 104ba40 
2508375350500: system.ruby.l0_cntrl0: MESI_Two_Level-L00cache.sm:221: delay inport addr 12c1c40 
2508375406500: system.ruby.l0_cntrl1: MESI_Two_Level-L00cache.sm:221: delay inport addr 104b540 
2508375433500: system.ruby.l0_cntrl1: MESI_Two_Level-L00cache.sm:221: delay inport addr 7d50a340 
2508375441000: system.ruby.l0_cntrl0: MESI_Two_Level-L00cache.sm:221: delay inport addr 163c200 
2508375471000: system.ruby.l0_cntrl1: MESI_Two_Level-L00cache.sm:221: delay inport addr 7db14d00 
2508375496000: system.ruby.l0_cntrl1: MESI_Two_Level-L00cache.sm:221: delay inport addr 104b580 
2508375518500: system.ruby.l0_cntrl0: MESI_Two_Level-L00cache.sm:221: delay inport addr 163c240 
2508375524000: system.ruby.l0_cntrl1: MESI_Two_Level-L00cache.sm:221: delay inport addr 2268000 
2508375559000: system.ruby.l0_cntrl1: MESI_Two_Level-L00cache.sm:221: delay inport addr 104b5c0 
2508375581000: system.ruby.l0_cntrl0: MESI_Two_Level-L00cache.sm:221: delay inport addr 163c280 
2508375586500: system.ruby.l0_cntrl1: MESI_Two_Level-L00cache.sm:221: delay inport addr 2404ec0 
2508375622500: system.ruby.l0_cntrl1: MESI_Two_Level-L00cache.sm:221: delay inport addr 104b600 
2508375668500: system.ruby.l0_cntrl0: MESI_Two_Level-L00cache.sm:221: delay inport addr 7cb52540 
2508375676000: system.ruby.l0_cntrl1: MESI_Two_Level-L00cache.sm:221: delay inport addr 794b1b40 
2508375683500: system.ruby.l0_cntrl0: MESI_Two_Level-L00cache.sm:221: delay inport addr 11025c0 
2508375705500: system.ruby.l0_cntrl0: MESI_Two_Level-L00cache.sm:221: delay inport addr 138c380 
2508375710500: system.ruby.l0_cntrl1: MESI_Two_Level-L00cache.sm:221: delay inport addr 104b640 
2508375766500: system.ruby.l0_cntrl1: MESI_Two_Level-L00cache.sm:221: delay inport addr 7bb6cdc0 
2508375770000: system.ruby.l0_cntrl1: MESI_Two_Level-L00cache.sm:221: delay inport addr 7d50a700 
2508375772000: system.ruby.l0_cntrl1: MESI_Two_Level-L00cache.sm:221: delay inport addr 7bb6d2c0 
2508375779000: system.ruby.l0_cntrl1: MESI_Two_Level-L00cache.sm:221: delay inport addr 104b680 
2508375801500: system.ruby.l0_cntrl0: MESI_Two_Level-L00cache.sm:221: delay inport addr 138c1c0 
2508375807500: system.ruby.l0_cntrl1: MESI_Two_Level-L00cache.sm:221: delay inport addr 1095900 
2508375848000: system.ruby.l0_cntrl1: MESI_Two_Level-L00cache.sm:221: delay inport addr 22e1f00 
2508375865500: system.ruby.l0_cntrl1: MESI_Two_Level-L00cache.sm:221: delay inport addr 104b7c0 
2508375876500: system.ruby.l0_cntrl1: MESI_Two_Level-L00cache.sm:221: delay inport addr 7cbe6c00 
2508375884000: system.ruby.l0_cntrl0: MESI_Two_Level-L00cache.sm:221: delay inport addr 138c200 
2508375929000: system.ruby.l0_cntrl1: MESI_Two_Level-L00cache.sm:221: delay inport addr 104b800 
2508375960500: system.ruby.l0_cntrl1: MESI_Two_Level-L00cache.sm:221: delay inport addr 7cb84040 
2508376065500: system.ruby.l0_cntrl1: MESI_Two_Level-L00cache.sm:221: delay inport addr 104b840 
2508376102500: system.ruby.l0_cntrl1: MESI_Two_Level-L00cache.sm:221: delay inport addr 1095940 
2508376187000: system.ruby.l0_cntrl0: MESI_Two_Level-L00cache.sm:221: delay inport addr 1637f00 
2508376209000: system.ruby.l0_cntrl1: MESI_Two_Level-L00cache.sm:221: delay inport addr 7cb84080 
2508376220000: system.ruby.l0_cntrl1: MESI_Two_Level-L00cache.sm:221: delay inport addr 1164200 
2508376254000: system.ruby.l0_cntrl0: MESI_Two_Level-L00cache.sm:221: delay inport addr 163e900 
2508376314500: system.ruby.l0_cntrl1: MESI_Two_Level-L00cache.sm:221: delay inport addr 1164240 
2508376319000: system.ruby.l0_cntrl1: MESI_Two_Level-L00cache.sm:221: delay inport addr 1159100 
2508376326500: system.ruby.l0_cntrl0: MESI_Two_Level-L00cache.sm:221: delay inport addr 163e940 
2508376409500: system.ruby.l0_cntrl1: MESI_Two_Level-L00cache.sm:221: delay inport addr 1159140 
2508376417000: system.ruby.l0_cntrl0: MESI_Two_Level-L00cache.sm:221: delay inport addr 163e980 
2508376480000: system.ruby.l0_cntrl0: MESI_Two_Level-L00cache.sm:221: delay inport addr 163e9c0 
2508376485000: system.ruby.l0_cntrl1: MESI_Two_Level-L00cache.sm:221: delay inport addr 7bb6cb40 
2508376487500: system.ruby.l0_cntrl1: MESI_Two_Level-L00cache.sm:221: delay inport addr 1159180 
2508376492500: system.ruby.l0_cntrl1: MESI_Two_Level-L00cache.sm:221: delay inport addr 7cb84000 
2508376559000: system.ruby.l0_cntrl1: MESI_Two_Level-L00cache.sm:221: delay inport addr 11591c0 
2508376581500: system.ruby.l0_cntrl0: MESI_Two_Level-L00cache.sm:221: delay inport addr 20dda80 
2508376592000: system.ruby.l0_cntrl1: MESI_Two_Level-L00cache.sm:221: delay inport addr 7bb6ce00 
2508376603000: system.ruby.l0_cntrl0: MESI_Two_Level-L00cache.sm:221: delay inport addr 20d91c0 
2508376617500: system.ruby.l0_cntrl0: MESI_Two_Level-L00cache.sm:221: delay inport addr 7d6054c0 
2508376686000: system.ruby.l0_cntrl1: MESI_Two_Level-L00cache.sm:221: delay inport addr 2404e40 
2508376734500: system.ruby.l0_cntrl0: MESI_Two_Level-L00cache.sm:221: delay inport addr 1184e00 
2508376740500: system.ruby.l0_cntrl0: MESI_Two_Level-L00cache.sm:221: delay inport addr 11c2f00 
2508376770000: system.ruby.l0_cntrl1: MESI_Two_Level-L00cache.sm:221: delay inport addr 7965c2c0 
2508376775000: system.ruby.l0_cntrl1: MESI_Two_Level-L00cache.sm:221: delay inport addr 7965c0c0 
2508376782000: system.ruby.l0_cntrl1: MESI_Two_Level-L00cache.sm:221: delay inport addr 7965c080 
2508376825500: system.ruby.l0_cntrl0: MESI_Two_Level-L00cache.sm:221: delay inport addr 11c2f40 
2508376831500: system.ruby.l0_cntrl0: MESI_Two_Level-L00cache.sm:221: delay inport addr 7d045600 
2508376871000: system.ruby.l0_cntrl1: MESI_Two_Level-L00cache.sm:221: delay inport addr 104b300 
2508376873000: system.ruby.l0_cntrl1: MESI_Two_Level-L00cache.sm:221: delay inport addr 104b6c0 
2508376904000: system.ruby.l0_cntrl0: MESI_Two_Level-L00cache.sm:221: delay inport addr 11c2940 
2508376935000: system.ruby.l0_cntrl1: MESI_Two_Level-L00cache.sm:221: delay inport addr 104b700 
2508376967000: system.ruby.l0_cntrl0: MESI_Two_Level-L00cache.sm:221: delay inport addr 11c2980 
2508376998000: system.ruby.l0_cntrl1: MESI_Two_Level-L00cache.sm:221: delay inport addr 104b740 
2508377000000: system.ruby.l0_cntrl1: MESI_Two_Level-L00cache.sm:221: delay inport addr 7965c300 
2508377010500: system.ruby.l0_cntrl1: MESI_Two_Level-L00cache.sm:221: delay inport addr 104b340 
2508377030500: system.ruby.l0_cntrl0: MESI_Two_Level-L00cache.sm:221: delay inport addr 11c29c0 
2508377035500: system.ruby.l0_cntrl0: MESI_Two_Level-L00cache.sm:221: delay inport addr 11c2dc0 
2508377050500: system.ruby.l0_cntrl1: MESI_Two_Level-L00cache.sm:221: delay inport addr 7caae740 
2508377058000: system.ruby.l0_cntrl0: MESI_Two_Level-L00cache.sm:221: delay inport addr 7d6056c0 
2508377070500: system.ruby.l0_cntrl1: MESI_Two_Level-L00cache.sm:221: delay inport addr 104b780 
2508377082500: system.ruby.l0_cntrl1: MESI_Two_Level-L00cache.sm:221: delay inport addr 1161d80 
2508377098000: system.ruby.l0_cntrl0: MESI_Two_Level-L00cache.sm:221: delay inport addr 11c2e00 
2508377173000: system.ruby.l0_cntrl1: MESI_Two_Level-L00cache.sm:221: delay inport addr 1161dc0 
2508377180500: system.ruby.l0_cntrl0: MESI_Two_Level-L00cache.sm:221: delay inport addr 11c2e40 
2508377182500: system.ruby.l0_cntrl0: MESI_Two_Level-L00cache.sm:221: delay inport addr 11c2c00 
2508377216000: system.ruby.l0_cntrl0: MESI_Two_Level-L00cache.sm:221: delay inport addr 7d543300 
2508377240000: system.ruby.l0_cntrl1: MESI_Two_Level-L00cache.sm:221: delay inport addr 1161340 
2508377299500: system.ruby.l0_cntrl0: MESI_Two_Level-L00cache.sm:221: delay inport addr 1102600 
2508377306500: system.ruby.l0_cntrl1: MESI_Two_Level-L00cache.sm:221: delay inport addr 1161380 
2508377371000: system.ruby.l0_cntrl1: MESI_Two_Level-L00cache.sm:221: delay inport addr 11613c0 
2508377378500: system.ruby.l0_cntrl1: MESI_Two_Level-L00cache.sm:221: delay inport addr 7965c380 
2508377383500: system.ruby.l0_cntrl0: MESI_Two_Level-L00cache.sm:221: delay inport addr 7cb527c0 
2508377393500: system.ruby.l0_cntrl0: MESI_Two_Level-L00cache.sm:221: delay inport addr 7d40c340 
2508377434000: system.ruby.l0_cntrl1: MESI_Two_Level-L00cache.sm:221: delay inport addr 1161400 
2508377463000: system.ruby.l0_cntrl1: MESI_Two_Level-L00cache.sm:221: delay inport addr 7965c340 
2508377471500: system.ruby.l0_cntrl1: MESI_Two_Level-L00cache.sm:221: delay inport addr 7d5b0fc0 
2508377497500: system.ruby.l0_cntrl1: MESI_Two_Level-L00cache.sm:221: delay inport addr 1161440 
2508377503500: system.ruby.l0_cntrl0: MESI_Two_Level-L00cache.sm:221: delay inport addr 7bc4ae40 
2508377561500: system.ruby.l0_cntrl1: MESI_Two_Level-L00cache.sm:221: delay inport addr 7d5ff9c0 
2508377577000: system.ruby.l0_cntrl1: MESI_Two_Level-L00cache.sm:221: delay inport addr 1e69340 
2508377582000: system.ruby.l0_cntrl1: MESI_Two_Level-L00cache.sm:221: delay inport addr 1161480 
2508377605000: system.ruby.l0_cntrl0: MESI_Two_Level-L00cache.sm:221: delay inport addr 7bc35440 
2508377621500: system.ruby.l0_cntrl0: MESI_Two_Level-L00cache.sm:221: delay inport addr 7cb1a0c0 
2508377645000: system.ruby.l0_cntrl1: MESI_Two_Level-L00cache.sm:221: delay inport addr 11614c0 
2508377655000: system.ruby.l0_cntrl1: MESI_Two_Level-L00cache.sm:221: delay inport addr 7cf04e80 
2508377711000: system.ruby.l0_cntrl0: MESI_Two_Level-L00cache.sm:221: delay inport addr 7bc4f5c0 
2508377718500: system.ruby.l0_cntrl1: MESI_Two_Level-L00cache.sm:221: delay inport addr 1161500 
2508377753500: system.ruby.l0_cntrl1: MESI_Two_Level-L00cache.sm:221: delay inport addr 794b1980 
2508377802000: system.ruby.l0_cntrl0: MESI_Two_Level-L00cache.sm:221: delay inport addr 7bc4f600 
2508377809500: system.ruby.l0_cntrl0: MESI_Two_Level-L00cache.sm:221: delay inport addr 1b34d80 
2508377809500: system.ruby.l0_cntrl1: MESI_Two_Level-L00cache.sm:221: delay inport addr 1161540 
2508377814500: system.ruby.l0_cntrl1: MESI_Two_Level-L00cache.sm:221: delay inport addr 11615c0 
2508377863500: system.ruby.l0_cntrl1: MESI_Two_Level-L00cache.sm:221: delay inport addr 2404e00 
2508377878000: system.ruby.l0_cntrl1: MESI_Two_Level-L00cache.sm:221: delay inport addr 1161600 
2508377899500: system.ruby.l0_cntrl0: MESI_Two_Level-L00cache.sm:221: delay inport addr 1b34dc0 
2508377906500: system.ruby.l0_cntrl0: MESI_Two_Level-L00cache.sm:221: delay inport addr 1f52480 
2508377960500: system.ruby.l0_cntrl1: MESI_Two_Level-L00cache.sm:221: delay inport addr 1c29600 
2508377965500: system.ruby.l0_cntrl1: MESI_Two_Level-L00cache.sm:221: delay inport addr 1161640 
2508377974000: system.ruby.l0_cntrl1: MESI_Two_Level-L00cache.sm:221: delay inport addr 1137f00 
2508377979000: system.ruby.l0_cntrl1: MESI_Two_Level-L00cache.sm:221: delay inport addr 1161b00 
2508378002000: system.ruby.l0_cntrl0: MESI_Two_Level-L00cache.sm:221: delay inport addr 1a56a40 
2508378026500: system.ruby.l0_cntrl1: MESI_Two_Level-L00cache.sm:221: delay inport addr 11617c0 
2508378068500: system.ruby.l0_cntrl0: MESI_Two_Level-L00cache.sm:221: delay inport addr 7cb1b1c0 
2508378073500: system.ruby.l0_cntrl0: MESI_Two_Level-L00cache.sm:221: delay inport addr 7bc4f300 
2508378089000: system.ruby.l0_cntrl1: MESI_Two_Level-L00cache.sm:221: delay inport addr 1161800 
2508378117500: system.ruby.l0_cntrl1: MESI_Two_Level-L00cache.sm:221: delay inport addr 20f22c0 
2508378136000: system.ruby.l0_cntrl0: MESI_Two_Level-L00cache.sm:221: delay inport addr 7bc4f340 
2508378158000: system.ruby.l0_cntrl0: MESI_Two_Level-L00cache.sm:221: delay inport addr 7cb1c5c0 
2508378165500: system.ruby.l0_cntrl0: MESI_Two_Level-L00cache.sm:221: delay inport addr 1b34ec0 
2508378170500: system.ruby.l0_cntrl1: MESI_Two_Level-L00cache.sm:221: delay inport addr 1161840 
2508378248500: system.ruby.l0_cntrl0: MESI_Two_Level-L00cache.sm:221: delay inport addr 7781a8c0 
2508378250500: system.ruby.l0_cntrl0: MESI_Two_Level-L00cache.sm:221: delay inport addr 7cb2ac40 
2508378259500: system.ruby.l0_cntrl0: MESI_Two_Level-L00cache.sm:221: delay inport addr 1b34f00 
2508378261500: system.ruby.l0_cntrl0: MESI_Two_Level-L00cache.sm:221: delay inport addr 1f52540 
2508378264500: system.ruby.l0_cntrl1: MESI_Two_Level-L00cache.sm:221: delay inport addr 1161880 
2508378325500: system.ruby.l0_cntrl0: MESI_Two_Level-L00cache.sm:221: delay inport addr 1a54540 
2508378342500: system.ruby.l0_cntrl0: MESI_Two_Level-L00cache.sm:221: delay inport addr 1a66f80 
2508378347500: system.ruby.l0_cntrl1: MESI_Two_Level-L00cache.sm:221: delay inport addr 11618c0 
2508378353000: system.ruby.l0_cntrl1: MESI_Two_Level-L00cache.sm:221: delay inport addr 1050f40 
2508378368500: system.ruby.l0_cntrl1: MESI_Two_Level-L00cache.sm:221: delay inport addr 112e580 
2508378433000: system.ruby.l0_cntrl0: MESI_Two_Level-L00cache.sm:221: delay inport addr 7781a700 
2508378458500: system.ruby.l0_cntrl1: MESI_Two_Level-L00cache.sm:221: delay inport addr 112e5c0 
2508378521500: system.ruby.l0_cntrl1: MESI_Two_Level-L00cache.sm:221: delay inport addr 112e600 
2508378585000: system.ruby.l0_cntrl1: MESI_Two_Level-L00cache.sm:221: delay inport addr 112e640 
2508378590000: system.ruby.l0_cntrl1: MESI_Two_Level-L00cache.sm:221: delay inport addr 112e6c0 
2508378653000: system.ruby.l0_cntrl1: MESI_Two_Level-L00cache.sm:221: delay inport addr 112e700 
2508378692500: system.ruby.l0_cntrl1: MESI_Two_Level-L00cache.sm:221: delay inport addr 1631d40 
2508378782000: system.ruby.l0_cntrl0: MESI_Two_Level-L00cache.sm:221: delay inport addr 1182d80 
2508378784000: system.ruby.l0_cntrl1: MESI_Two_Level-L00cache.sm:221: delay inport addr 1631d80 
2508378787000: system.ruby.l0_cntrl1: MESI_Two_Level-L00cache.sm:221: delay inport addr 7cf04e00 
2508378847500: system.ruby.l0_cntrl1: MESI_Two_Level-L00cache.sm:221: delay inport addr 1631dc0 
2508378875000: system.ruby.l0_cntrl0: MESI_Two_Level-L00cache.sm:221: delay inport addr 11a0300 
2508378911000: system.ruby.l0_cntrl1: MESI_Two_Level-L00cache.sm:221: delay inport addr 1631e00 
2508378940500: system.ruby.l0_cntrl1: MESI_Two_Level-L00cache.sm:221: delay inport addr 7cf08000 
2508378966500: system.ruby.l0_cntrl0: MESI_Two_Level-L00cache.sm:221: delay inport addr 11a0340 
2508378975000: system.ruby.l0_cntrl1: MESI_Two_Level-L00cache.sm:221: delay inport addr 1631e40 
2508378977500: system.ruby.l0_cntrl0: MESI_Two_Level-L00cache.sm:221: delay inport addr 1646700 
2508379006500: system.ruby.l0_cntrl1: MESI_Two_Level-L00cache.sm:221: delay inport addr 7cf08200 
2508379011500: system.ruby.l0_cntrl1: MESI_Two_Level-L00cache.sm:221: delay inport addr 1631f00 
2508379067500: system.ruby.l0_cntrl0: MESI_Two_Level-L00cache.sm:221: delay inport addr 1646740 
2508379083500: system.ruby.l0_cntrl1: MESI_Two_Level-L00cache.sm:221: delay inport addr 1631e80 
2508379123500: system.ruby.l0_cntrl1: MESI_Two_Level-L00cache.sm:221: delay inport addr 1631f40 
2508379140500: system.ruby.l0_cntrl1: MESI_Two_Level-L00cache.sm:221: delay inport addr 1631ec0 
2508379156000: system.ruby.l0_cntrl1: MESI_Two_Level-L00cache.sm:221: delay inport addr 7cf09900 
2508379185500: system.ruby.l0_cntrl1: MESI_Two_Level-L00cache.sm:221: delay inport addr 7cf09b40 
2508379208500: system.ruby.l0_cntrl1: MESI_Two_Level-L00cache.sm:221: delay inport addr 1161900 
2508379213500: system.ruby.l0_cntrl1: MESI_Two_Level-L00cache.sm:221: delay inport addr 1161cc0 
2508379216000: system.ruby.l0_cntrl0: MESI_Two_Level-L00cache.sm:221: delay inport addr 1181980 
2508379221000: system.ruby.l0_cntrl1: MESI_Two_Level-L00cache.sm:221: delay inport addr 7cf09b00 
2508379223000: system.ruby.l0_cntrl0: MESI_Two_Level-L00cache.sm:221: delay inport addr 7d544040 
2508379230000: system.ruby.l0_cntrl1: MESI_Two_Level-L00cache.sm:221: delay inport addr 1631f80 
2508379307000: system.ruby.l0_cntrl0: MESI_Two_Level-L00cache.sm:221: delay inport addr 11819c0 
2508379314500: system.ruby.l0_cntrl1: MESI_Two_Level-L00cache.sm:221: delay inport addr 7bb30e80 
2508379319500: system.ruby.l0_cntrl1: MESI_Two_Level-L00cache.sm:221: delay inport addr 112e680 
2508379322000: system.ruby.l0_cntrl0: MESI_Two_Level-L00cache.sm:221: delay inport addr 1c5d080 
2508379347000: system.ruby.l0_cntrl1: MESI_Two_Level-L00cache.sm:221: delay inport addr 113f100 
2508379402000: system.ruby.l0_cntrl0: MESI_Two_Level-L00cache.sm:221: delay inport addr 11c4740 
2508379405500: system.ruby.l0_cntrl1: MESI_Two_Level-L00cache.sm:221: delay inport addr 7dff9000 
2508379410500: system.ruby.l0_cntrl1: MESI_Two_Level-L00cache.sm:221: delay inport addr 113de80 
2508379438000: system.ruby.l0_cntrl1: MESI_Two_Level-L00cache.sm:221: delay inport addr 113f140 
2508379473500: system.ruby.l0_cntrl1: MESI_Two_Level-L00cache.sm:221: delay inport addr 113dec0 
2508379494000: system.ruby.l0_cntrl0: MESI_Two_Level-L00cache.sm:221: delay inport addr 11c4780 
2508379501500: system.ruby.l0_cntrl1: MESI_Two_Level-L00cache.sm:221: delay inport addr 7dff8000 
2508379594500: system.ruby.l0_cntrl1: MESI_Two_Level-L00cache.sm:221: delay inport addr 7e06ff80 
2508379605500: system.ruby.l0_cntrl0: MESI_Two_Level-L00cache.sm:221: delay inport addr 11cfa40 
2508379696000: system.ruby.l0_cntrl0: MESI_Two_Level-L00cache.sm:221: delay inport addr 11cfa80 
2508379701000: system.ruby.l0_cntrl0: MESI_Two_Level-L00cache.sm:221: delay inport addr 11cfb00 
2508379709000: system.ruby.l0_cntrl1: MESI_Two_Level-L00cache.sm:221: delay inport addr 112e740 
2508379773500: system.ruby.l0_cntrl1: MESI_Two_Level-L00cache.sm:221: delay inport addr 112e780 
2508379777000: system.ruby.l0_cntrl1: MESI_Two_Level-L00cache.sm:221: delay inport addr 112e240 
2508379805000: system.ruby.l0_cntrl0: MESI_Two_Level-L00cache.sm:221: delay inport addr 1186000 
2508380074000: system.ruby.l0_cntrl1: MESI_Two_Level-L00cache.sm:221: delay inport addr 112e7c0 
2508380087000: system.ruby.l0_cntrl0: MESI_Two_Level-L00cache.sm:221: delay inport addr 1186040 
2508380113500: system.ruby.l0_cntrl1: MESI_Two_Level-L00cache.sm:221: delay inport addr 7cf04d00 
2508380151000: system.ruby.l0_cntrl1: MESI_Two_Level-L00cache.sm:221: delay inport addr 112e800 
2508380157000: system.ruby.l0_cntrl1: MESI_Two_Level-L00cache.sm:221: delay inport addr 7d5ff980 
2508380167000: system.ruby.l0_cntrl0: MESI_Two_Level-L00cache.sm:221: delay inport addr 1073300 
2508380214500: system.ruby.l0_cntrl1: MESI_Two_Level-L00cache.sm:221: delay inport addr 112e840 
2508380231000: system.ruby.l0_cntrl1: MESI_Two_Level-L00cache.sm:221: delay inport addr 115f180 
2508380244000: system.ruby.l0_cntrl0: MESI_Two_Level-L00cache.sm:221: delay inport addr 1073340 
2508380251500: system.ruby.l0_cntrl0: MESI_Two_Level-L00cache.sm:221: delay inport addr 7d558580 
2508380302000: system.ruby.l0_cntrl1: MESI_Two_Level-L00cache.sm:221: delay inport addr 115f300 
2508380308500: system.ruby.l0_cntrl1: MESI_Two_Level-L00cache.sm:221: delay inport addr 115f1c0 
2508380358000: system.ruby.l0_cntrl0: MESI_Two_Level-L00cache.sm:221: delay inport addr 10797c0 
2508380365000: system.ruby.l0_cntrl1: MESI_Two_Level-L00cache.sm:221: delay inport addr 115f340 
2508380370000: system.ruby.l0_cntrl1: MESI_Two_Level-L00cache.sm:221: delay inport addr 115f4c0 
2508380375000: system.ruby.l0_cntrl1: MESI_Two_Level-L00cache.sm:221: delay inport addr 115f3c0 
2508380437000: system.ruby.l0_cntrl1: MESI_Two_Level-L00cache.sm:221: delay inport addr 115f400 
2508380500000: system.ruby.l0_cntrl1: MESI_Two_Level-L00cache.sm:221: delay inport addr 115f440 
2508380545500: system.ruby.l0_cntrl0: MESI_Two_Level-L00cache.sm:221: delay inport addr 1002080 
2508380563000: system.ruby.l0_cntrl1: MESI_Two_Level-L00cache.sm:221: delay inport addr 115f480 
2508380621000: system.ruby.l0_cntrl0: MESI_Two_Level-L00cache.sm:221: delay inport addr 10020c0 
2508380662000: system.ruby.l0_cntrl1: MESI_Two_Level-L00cache.sm:221: delay inport addr 7dff8040 
2508380687500: system.ruby.l0_cntrl0: MESI_Two_Level-L00cache.sm:221: delay inport addr 1001c00 
2508380759500: system.ruby.l0_cntrl0: MESI_Two_Level-L00cache.sm:221: delay inport addr 1001c40 
2508380822500: system.ruby.l0_cntrl0: MESI_Two_Level-L00cache.sm:221: delay inport addr 1001c80 
2508380828500: system.ruby.l0_cntrl1: MESI_Two_Level-L00cache.sm:221: delay inport addr 115f500 
2508380833500: system.ruby.l0_cntrl1: MESI_Two_Level-L00cache.sm:221: delay inport addr 115f200 
2508380835500: system.ruby.l0_cntrl1: MESI_Two_Level-L00cache.sm:221: delay inport addr 115f2c0 
2508380899000: system.ruby.l0_cntrl0: MESI_Two_Level-L00cache.sm:221: delay inport addr 112c4c0 
2508380915000: system.ruby.l0_cntrl0: MESI_Two_Level-L00cache.sm:221: delay inport addr 1001cc0 
2508380926500: system.ruby.l0_cntrl1: MESI_Two_Level-L00cache.sm:221: delay inport addr 20f1500 
2508380934000: system.ruby.l0_cntrl0: MESI_Two_Level-L00cache.sm:221: delay inport addr 7d5586c0 
2508380939000: system.ruby.l0_cntrl1: MESI_Two_Level-L00cache.sm:221: delay inport addr 115f240 
2508380947000: system.ruby.l0_cntrl0: MESI_Two_Level-L00cache.sm:221: delay inport addr 10733c0 
2508381019500: system.ruby.l0_cntrl1: MESI_Two_Level-L00cache.sm:221: delay inport addr 116b3c0 
2508381033500: system.ruby.l0_cntrl0: MESI_Two_Level-L00cache.sm:221: delay inport addr 1073400 
2508381097500: system.ruby.l0_cntrl0: MESI_Two_Level-L00cache.sm:221: delay inport addr 1073440 
2508381133000: system.ruby.l0_cntrl1: MESI_Two_Level-L00cache.sm:221: delay inport addr 1045f40 
2508381137500: system.ruby.l0_cntrl0: MESI_Two_Level-L00cache.sm:221: delay inport addr 1646800 
2508381216500: system.ruby.l0_cntrl1: MESI_Two_Level-L00cache.sm:221: delay inport addr 112e880 
2508381319000: system.ruby.l0_cntrl1: MESI_Two_Level-L00cache.sm:221: delay inport addr 7e06ffc0 
2508381351000: system.ruby.l0_cntrl0: MESI_Two_Level-L00cache.sm:221: delay inport addr 1073480 
2508381451500: system.ruby.l0_cntrl0: MESI_Two_Level-L00cache.sm:221: delay inport addr 1642740 
2508381453500: system.ruby.l0_cntrl0: MESI_Two_Level-L00cache.sm:221: delay inport addr 1185fc0 
2508381454000: system.ruby.l0_cntrl1: MESI_Two_Level-L00cache.sm:221: delay inport addr 115f380 
2508381513500: system.ruby.l0_cntrl1: MESI_Two_Level-L00cache.sm:221: delay inport addr 10b1fc0 
2508381520000: system.ruby.l0_cntrl0: MESI_Two_Level-L00cache.sm:221: delay inport addr 1185dc0 
2508381550000: system.ruby.l0_cntrl1: MESI_Two_Level-L00cache.sm:221: delay inport addr 7dcf0000 
2508381610000: system.ruby.l0_cntrl0: MESI_Two_Level-L00cache.sm:221: delay inport addr 1185e00 
2508381673500: system.ruby.l0_cntrl0: MESI_Two_Level-L00cache.sm:221: delay inport addr 1185e40 
2508381737000: system.ruby.l0_cntrl0: MESI_Two_Level-L00cache.sm:221: delay inport addr 1185e80 
2508381742000: system.ruby.l0_cntrl0: MESI_Two_Level-L00cache.sm:221: delay inport addr 1185f00 
2508381752000: system.ruby.l0_cntrl0: MESI_Two_Level-L00cache.sm:221: delay inport addr 7cb34dc0 
2508381770000: system.ruby.l0_cntrl1: MESI_Two_Level-L00cache.sm:221: delay inport addr 7dcf0040 
2508381804000: system.ruby.l0_cntrl0: MESI_Two_Level-L00cache.sm:221: delay inport addr 1185f40 
2508381867500: system.ruby.l0_cntrl0: MESI_Two_Level-L00cache.sm:221: delay inport addr 1185f80 
2508381877500: system.ruby.l0_cntrl0: MESI_Two_Level-L00cache.sm:221: delay inport addr 1185300 
2508381933500: system.ruby.l0_cntrl0: MESI_Two_Level-L00cache.sm:221: delay inport addr 1185ec0 
2508381946000: system.ruby.l0_cntrl1: MESI_Two_Level-L00cache.sm:221: delay inport addr 7dcf0080 
2508381948500: system.ruby.l0_cntrl0: MESI_Two_Level-L00cache.sm:221: delay inport addr 11d1780 
2508382019000: system.ruby.l0_cntrl0: MESI_Two_Level-L00cache.sm:221: delay inport addr 11d1880 
2508382025000: system.ruby.l0_cntrl0: MESI_Two_Level-L00cache.sm:221: delay inport addr 11d17c0 
2508382112500: system.ruby.l0_cntrl0: MESI_Two_Level-L00cache.sm:221: delay inport addr 10cb5c0 
2508382129500: system.ruby.l0_cntrl1: MESI_Two_Level-L00cache.sm:221: delay inport addr 10b2000 
2508382157500: system.ruby.l0_cntrl1: MESI_Two_Level-L00cache.sm:221: delay inport addr 7dcf00c0 
2508382207500: system.ruby.l0_cntrl0: MESI_Two_Level-L00cache.sm:221: delay inport addr 1188f00 
2508382300500: system.ruby.l0_cntrl0: MESI_Two_Level-L00cache.sm:221: delay inport addr 7d64ba40 
2508382311500: system.ruby.l0_cntrl0: MESI_Two_Level-L00cache.sm:221: delay inport addr 162f8c0 
2508382365000: system.ruby.l0_cntrl1: MESI_Two_Level-L00cache.sm:221: delay inport addr 7dcf0100 
2508382396500: system.ruby.l0_cntrl0: MESI_Two_Level-L00cache.sm:221: delay inport addr 162f900 
2508382404000: system.ruby.l0_cntrl0: MESI_Two_Level-L00cache.sm:221: delay inport addr 7d64ba00 
2508382519500: system.ruby.l0_cntrl0: MESI_Two_Level-L00cache.sm:221: delay inport addr 10cb600 
2508382562000: system.ruby.l0_cntrl1: MESI_Two_Level-L00cache.sm:221: delay inport addr 7e06aa80 
2508382655500: system.ruby.l0_cntrl0: MESI_Two_Level-L00cache.sm:221: delay inport addr 1072a80 
2508382745500: system.ruby.l0_cntrl0: MESI_Two_Level-L00cache.sm:221: delay inport addr 1072ac0 
2508382813500: system.ruby.l0_cntrl1: MESI_Two_Level-L00cache.sm:221: delay inport addr 7cf09d80 
2508382818500: system.ruby.l0_cntrl1: MESI_Two_Level-L00cache.sm:221: delay inport addr 7cf09b80 
2508382829500: system.ruby.l0_cntrl1: MESI_Two_Level-L00cache.sm:221: delay inport addr 1631fc0 
2508382841000: system.ruby.l0_cntrl0: MESI_Two_Level-L00cache.sm:221: delay inport addr 119ac80 
2508382848500: system.ruby.l0_cntrl1: MESI_Two_Level-L00cache.sm:221: delay inport addr 1161d00 
2508382931000: system.ruby.l0_cntrl0: MESI_Two_Level-L00cache.sm:221: delay inport addr 119acc0 
2508382936500: system.ruby.l0_cntrl1: MESI_Two_Level-L00cache.sm:221: delay inport addr 7e06aac0 
2508382995500: system.ruby.l0_cntrl0: MESI_Two_Level-L00cache.sm:221: delay inport addr 119ad00 
2508383025500: system.ruby.l0_cntrl0: MESI_Two_Level-L00cache.sm:221: delay inport addr 12b5f80 
2508383058000: system.ruby.l0_cntrl0: MESI_Two_Level-L00cache.sm:221: delay inport addr 119ad40 
2508383079000: system.ruby.l0_cntrl1: MESI_Two_Level-L00cache.sm:221: delay inport addr 78c0d2c0 
2508383122500: system.ruby.l0_cntrl0: MESI_Two_Level-L00cache.sm:221: delay inport addr 119ad80 
2508383150000: system.ruby.l0_cntrl0: MESI_Two_Level-L00cache.sm:221: delay inport addr 7d045640 
2508383157500: system.ruby.l0_cntrl0: MESI_Two_Level-L00cache.sm:221: delay inport addr 12b61c0 
2508383208500: system.ruby.l0_cntrl1: MESI_Two_Level-L00cache.sm:221: delay inport addr 7e06ab00 
2508383276500: system.ruby.l0_cntrl0: MESI_Two_Level-L00cache.sm:221: delay inport addr 11a30c0 
2508383344000: system.ruby.l0_cntrl0: MESI_Two_Level-L00cache.sm:221: delay inport addr 11a2f40 
2508383377000: system.ruby.l0_cntrl1: MESI_Two_Level-L00cache.sm:221: delay inport addr 7e06ab40 
2508383436500: system.ruby.l0_cntrl0: MESI_Two_Level-L00cache.sm:221: delay inport addr 7d5432c0 
2508383441500: system.ruby.l0_cntrl0: MESI_Two_Level-L00cache.sm:221: delay inport addr 7d543240 
2508383454500: system.ruby.l0_cntrl0: MESI_Two_Level-L00cache.sm:221: delay inport addr 12cf040 
2508383531500: system.ruby.l0_cntrl0: MESI_Two_Level-L00cache.sm:221: delay inport addr 12cf080 
2508383544000: system.ruby.l0_cntrl0: MESI_Two_Level-L00cache.sm:221: delay inport addr 7caae040 
2508383546500: system.ruby.l0_cntrl1: MESI_Two_Level-L00cache.sm:221: delay inport addr 7e06ab80 
2508383634000: system.ruby.l0_cntrl0: MESI_Two_Level-L00cache.sm:221: delay inport addr 2008480 
2508383638000: system.ruby.l0_cntrl0: MESI_Two_Level-L00cache.sm:221: delay inport addr 20f2640 
2508383716000: system.ruby.l0_cntrl1: MESI_Two_Level-L00cache.sm:221: delay inport addr 7e06abc0 
2508383724000: system.ruby.l0_cntrl0: MESI_Two_Level-L00cache.sm:221: delay inport addr 7da22980 
2508383836000: system.ruby.l0_cntrl0: MESI_Two_Level-L00cache.sm:221: delay inport addr 10b1480 
2508383893500: system.ruby.l0_cntrl1: MESI_Two_Level-L00cache.sm:221: delay inport addr 7e06ac00 
2508383930000: system.ruby.l0_cntrl0: MESI_Two_Level-L00cache.sm:221: delay inport addr 10b10c0 
2508383992500: system.ruby.l0_cntrl0: MESI_Two_Level-L00cache.sm:221: delay inport addr 10b1100 
2508384056500: system.ruby.l0_cntrl0: MESI_Two_Level-L00cache.sm:221: delay inport addr 10b1140 
2508384065000: system.ruby.l0_cntrl1: MESI_Two_Level-L00cache.sm:221: delay inport addr 7e06ac40 
2508384124500: system.ruby.l0_cntrl0: MESI_Two_Level-L00cache.sm:221: delay inport addr 10b1180 
2508384152000: system.ruby.l0_cntrl0: MESI_Two_Level-L00cache.sm:221: delay inport addr 7caae200 
2508384186000: system.ruby.l0_cntrl0: MESI_Two_Level-L00cache.sm:221: delay inport addr 10b36c0 
2508384242000: system.ruby.l0_cntrl0: MESI_Two_Level-L00cache.sm:221: delay inport addr 2042880 
2508384252500: system.ruby.l0_cntrl1: MESI_Two_Level-L00cache.sm:221: delay inport addr 7cf09bc0 
2508384260000: system.ruby.l0_cntrl0: MESI_Two_Level-L00cache.sm:221: delay inport addr 10b3700 
2508384312000: system.ruby.l0_cntrl0: MESI_Two_Level-L00cache.sm:221: delay inport addr 7da20000 
2508384317000: system.ruby.l0_cntrl1: MESI_Two_Level-L00cache.sm:221: delay inport addr 7e06ac80 
2508384332500: system.ruby.l0_cntrl0: MESI_Two_Level-L00cache.sm:221: delay inport addr 7da1ffc0 
2508384340000: system.ruby.l0_cntrl0: MESI_Two_Level-L00cache.sm:221: delay inport addr 10b11c0 
2508384404000: system.ruby.l0_cntrl0: MESI_Two_Level-L00cache.sm:221: delay inport addr 10b1200 
2508384447500: system.ruby.l0_cntrl0: MESI_Two_Level-L00cache.sm:221: delay inport addr 7da19500 
2508384456500: system.ruby.l0_cntrl0: MESI_Two_Level-L00cache.sm:221: delay inport addr 20411c0 
2508384495000: system.ruby.l0_cntrl0: MESI_Two_Level-L00cache.sm:221: delay inport addr 20d8680 
2508384509000: system.ruby.l0_cntrl0: MESI_Two_Level-L00cache.sm:221: delay inport addr 1e6c540 
2508384535000: system.ruby.l0_cntrl1: MESI_Two_Level-L00cache.sm:221: delay inport addr 1161940 
2508384540000: system.ruby.l0_cntrl1: MESI_Two_Level-L00cache.sm:221: delay inport addr 115c180 
2508384547500: system.ruby.l0_cntrl1: MESI_Two_Level-L00cache.sm:221: delay inport addr 1161700 
2508384610000: system.ruby.l0_cntrl1: MESI_Two_Level-L00cache.sm:221: delay inport addr 1161740 
2508384615500: system.ruby.l0_cntrl1: MESI_Two_Level-L00cache.sm:221: delay inport addr 1161580 
2508384648500: system.ruby.l0_cntrl0: MESI_Two_Level-L00cache.sm:221: delay inport addr 10b0f00 
2508384651500: system.ruby.l0_cntrl0: MESI_Two_Level-L00cache.sm:221: delay inport addr 7d558600 
2508384716000: system.ruby.l0_cntrl1: MESI_Two_Level-L00cache.sm:221: delay inport addr 10959c0 
2508384735000: system.ruby.l0_cntrl0: MESI_Two_Level-L00cache.sm:221: delay inport addr 7da19540 
2508384742500: system.ruby.l0_cntrl0: MESI_Two_Level-L00cache.sm:221: delay inport addr 10b0e40 
2508384811000: system.ruby.l0_cntrl1: MESI_Two_Level-L00cache.sm:221: delay inport addr 163ebc0 
2508384846500: system.ruby.l0_cntrl1: MESI_Two_Level-L00cache.sm:221: delay inport addr 104b880 
2508384854000: system.ruby.l0_cntrl1: MESI_Two_Level-L00cache.sm:221: delay inport addr 11269c0 
2508384907500: system.ruby.l0_cntrl0: MESI_Two_Level-L00cache.sm:221: delay inport addr 119adc0 
2508384919000: system.ruby.l0_cntrl1: MESI_Two_Level-L00cache.sm:221: delay inport addr 115f540 
2508384956500: system.ruby.l0_cntrl1: MESI_Two_Level-L00cache.sm:221: delay inport addr 1801200 
2508384960500: system.ruby.l0_cntrl1: MESI_Two_Level-L00cache.sm:221: delay inport addr 1800fc0 
2508385019500: system.ruby.l0_cntrl1: MESI_Two_Level-L00cache.sm:221: delay inport addr 1801240 
2508385030000: system.ruby.l0_cntrl0: MESI_Two_Level-L00cache.sm:221: delay inport addr 1001d00 
2508385152000: system.ruby.l0_cntrl1: MESI_Two_Level-L00cache.sm:221: delay inport addr 1801280 
2508385157000: system.ruby.l0_cntrl1: MESI_Two_Level-L00cache.sm:221: delay inport addr 1800980 
2508385219000: system.ruby.l0_cntrl1: MESI_Two_Level-L00cache.sm:221: delay inport addr 18009c0 
2508385251000: system.ruby.l0_cntrl1: MESI_Two_Level-L00cache.sm:221: delay inport addr 1001e00 
2508385342000: system.ruby.l0_cntrl1: MESI_Two_Level-L00cache.sm:221: delay inport addr 1001e40 
2508385353000: system.ruby.l0_cntrl1: MESI_Two_Level-L00cache.sm:221: delay inport addr 7bb6d380 
2508385358000: system.ruby.l0_cntrl0: MESI_Two_Level-L00cache.sm:221: delay inport addr 77e20000 
2508385457500: system.ruby.l0_cntrl0: MESI_Two_Level-L00cache.sm:221: delay inport addr 7bc4be40 
2508385543000: system.ruby.l0_cntrl1: MESI_Two_Level-L00cache.sm:221: delay inport addr 1800a00 
2508385549000: system.ruby.l0_cntrl0: MESI_Two_Level-L00cache.sm:221: delay inport addr 7bc4be80 
2508385551000: system.ruby.l0_cntrl0: MESI_Two_Level-L00cache.sm:221: delay inport addr 77e20040 
2508385559000: system.ruby.l0_cntrl0: MESI_Two_Level-L00cache.sm:221: delay inport addr 7cb1ae40 
2508385634500: system.ruby.l0_cntrl1: MESI_Two_Level-L00cache.sm:221: delay inport addr 1800a40 
2508385639500: system.ruby.l0_cntrl0: MESI_Two_Level-L00cache.sm:221: delay inport addr 7bc4bec0 
2508385650500: system.ruby.l0_cntrl0: MESI_Two_Level-L00cache.sm:221: delay inport addr 77872540 
2508385703000: system.ruby.l0_cntrl0: MESI_Two_Level-L00cache.sm:221: delay inport addr 7bc4bf00 
2508385708000: system.ruby.l0_cntrl0: MESI_Two_Level-L00cache.sm:221: delay inport addr 7cb1a040 
2508385713000: system.ruby.l0_cntrl1: MESI_Two_Level-L00cache.sm:221: delay inport addr 1800a80 
2508385718000: system.ruby.l0_cntrl0: MESI_Two_Level-L00cache.sm:221: delay inport addr 7cb1a540 
2508385797500: system.ruby.l0_cntrl0: MESI_Two_Level-L00cache.sm:221: delay inport addr 7bc46f80 
2508385808000: system.ruby.l0_cntrl0: MESI_Two_Level-L00cache.sm:221: delay inport addr 1b16780 
2508385813000: system.ruby.l0_cntrl1: MESI_Two_Level-L00cache.sm:221: delay inport addr 1800ac0 
2508385887000: system.ruby.l0_cntrl0: MESI_Two_Level-L00cache.sm:221: delay inport addr 7bc46fc0 
2508385903500: system.ruby.l0_cntrl0: MESI_Two_Level-L00cache.sm:221: delay inport addr 7bb2d000 
2508385906000: system.ruby.l0_cntrl1: MESI_Two_Level-L00cache.sm:221: delay inport addr 7bc02300 
2508385953500: system.ruby.l0_cntrl0: MESI_Two_Level-L00cache.sm:221: delay inport addr 7bc46e40 
2508385979500: system.ruby.l0_cntrl0: MESI_Two_Level-L00cache.sm:221: delay inport addr 77e57e80 
2508385984500: system.ruby.l0_cntrl1: MESI_Two_Level-L00cache.sm:221: delay inport addr 7bc02000 
2508385991000: system.ruby.l0_cntrl1: MESI_Two_Level-L00cache.sm:221: delay inport addr 7bc02340 
2508386023500: system.ruby.l0_cntrl0: MESI_Two_Level-L00cache.sm:221: delay inport addr 7bc47000 
2508386046000: system.ruby.l0_cntrl0: MESI_Two_Level-L00cache.sm:221: delay inport addr 77e1e140 
2508386051000: system.ruby.l0_cntrl1: MESI_Two_Level-L00cache.sm:221: delay inport addr 7bc02040 
2508386056000: system.ruby.l0_cntrl1: MESI_Two_Level-L00cache.sm:221: delay inport addr 7bc02240 
2508386058000: system.ruby.l0_cntrl0: MESI_Two_Level-L00cache.sm:221: delay inport addr 1b35fc0 
2508386061000: system.ruby.l0_cntrl0: MESI_Two_Level-L00cache.sm:221: delay inport addr 7bc4bf40 
2508386070500: system.ruby.l0_cntrl0: MESI_Two_Level-L00cache.sm:221: delay inport addr 7bc4bf80 
2508386120500: system.ruby.l0_cntrl1: MESI_Two_Level-L00cache.sm:221: delay inport addr 7bc02280 
2508386131000: system.ruby.l0_cntrl1: MESI_Two_Level-L00cache.sm:221: delay inport addr 7bc02380 
2508386136000: system.ruby.l0_cntrl1: MESI_Two_Level-L00cache.sm:221: delay inport addr 7bc02400 
2508386154000: system.ruby.l0_cntrl1: MESI_Two_Level-L00cache.sm:221: delay inport addr 783b8500 
2508386164500: system.ruby.l0_cntrl0: MESI_Two_Level-L00cache.sm:221: delay inport addr 7bc4c180 
2508386165000: system.ruby.l0_cntrl1: MESI_Two_Level-L00cache.sm:221: delay inport addr 7749d740 
2508386170000: system.ruby.l0_cntrl0: MESI_Two_Level-L00cache.sm:221: delay inport addr 7bc4bfc0 
2508386198000: system.ruby.l0_cntrl1: MESI_Two_Level-L00cache.sm:221: delay inport addr 7bc02440 
2508386214500: system.ruby.l0_cntrl1: MESI_Two_Level-L00cache.sm:221: delay inport addr 7bc020c0 
2508386234000: system.ruby.l0_cntrl0: MESI_Two_Level-L00cache.sm:221: delay inport addr 7bc4c000 
2508386241500: system.ruby.l0_cntrl0: MESI_Two_Level-L00cache.sm:221: delay inport addr 1b35bc0 
2508386250500: system.ruby.l0_cntrl0: MESI_Two_Level-L00cache.sm:221: delay inport addr 7bc4c1c0 
2508386277000: system.ruby.l0_cntrl1: MESI_Two_Level-L00cache.sm:221: delay inport addr 7bc02100 
2508386332500: system.ruby.l0_cntrl0: MESI_Two_Level-L00cache.sm:221: delay inport addr 1b35c00 
2508386343500: system.ruby.l0_cntrl0: MESI_Two_Level-L00cache.sm:221: delay inport addr 1f52b80 
2508386348500: system.ruby.l0_cntrl1: MESI_Two_Level-L00cache.sm:221: delay inport addr 7bc02140 
2508386370000: system.ruby.l0_cntrl1: MESI_Two_Level-L00cache.sm:221: delay inport addr 783b8540 
2508386375000: system.ruby.l0_cntrl1: MESI_Two_Level-L00cache.sm:221: delay inport addr 783b85c0 
2508386413500: system.ruby.l0_cntrl1: MESI_Two_Level-L00cache.sm:221: delay inport addr 783b8600 
2508386438000: system.ruby.l0_cntrl0: MESI_Two_Level-L00cache.sm:221: delay inport addr 7cb321c0 
2508386445500: system.ruby.l0_cntrl1: MESI_Two_Level-L00cache.sm:221: delay inport addr 7bc02180 
2508386470500: system.ruby.l0_cntrl1: MESI_Two_Level-L00cache.sm:221: delay inport addr 774ca640 
2508386475500: system.ruby.l0_cntrl1: MESI_Two_Level-L00cache.sm:221: delay inport addr 7bc022c0 
2508386510000: system.ruby.l0_cntrl1: MESI_Two_Level-L00cache.sm:221: delay inport addr 77be1740 
2508386527500: system.ruby.l0_cntrl0: MESI_Two_Level-L00cache.sm:221: delay inport addr 1aba240 
[...]
2508763061000: system.ruby.l0_cntrl1: MESI_Two_Level-L00cache.sm:221: delay inport addr 10561c0 
2508763134500: system.ruby.l0_cntrl1: MESI_Two_Level-L00cache.sm:221: delay inport addr 107e2c0 
2508763197000: system.ruby.l0_cntrl1: MESI_Two_Level-L00cache.sm:221: delay inport addr 107e300 
2508763254500: system.ruby.l0_cntrl1: MESI_Two_Level-L00cache.sm:221: delay inport addr 107e340 
2508763277000: system.ruby.l0_cntrl1: MESI_Two_Level-L00cache.sm:221: delay inport addr 108d800 
2508763367000: system.ruby.l0_cntrl1: MESI_Two_Level-L00cache.sm:221: delay inport addr 108d840 
2508763374500: system.ruby.l0_cntrl1: MESI_Two_Level-L00cache.sm:221: delay inport addr 10b97c0 
2508763438500: system.ruby.l0_cntrl1: MESI_Two_Level-L00cache.sm:221: delay inport addr 10b9800 
2508763458500: system.ruby.l0_cntrl1: MESI_Two_Level-L00cache.sm:221: delay inport addr 20d8b40 
2508763503000: system.ruby.l0_cntrl1: MESI_Two_Level-L00cache.sm:221: delay inport addr 10b9840 
2508763564000: system.ruby.l0_cntrl1: MESI_Two_Level-L00cache.sm:221: delay inport addr 10b98c0 
2508763627000: system.ruby.l0_cntrl1: MESI_Two_Level-L00cache.sm:221: delay inport addr 10b9900 
2508763632000: system.ruby.l0_cntrl1: MESI_Two_Level-L00cache.sm:221: delay inport addr 10b9880 
2508763662500: system.ruby.l0_cntrl1: MESI_Two_Level-L00cache.sm:221: delay inport addr 1c0c600 
2508763712000: system.ruby.l0_cntrl1: MESI_Two_Level-L00cache.sm:221: delay inport addr 107e380 
2508763745000: system.ruby.l0_cntrl1: MESI_Two_Level-L00cache.sm:221: delay inport addr 108d880 
2508763819500: system.ruby.l0_cntrl1: MESI_Two_Level-L00cache.sm:221: delay inport addr 108df00 
2508763882000: system.ruby.l0_cntrl1: MESI_Two_Level-L00cache.sm:221: delay inport addr 108df40 
2508763962500: system.ruby.l0_cntrl1: MESI_Two_Level-L00cache.sm:221: delay inport addr 107e3c0 
2508763979000: system.ruby.l0_cntrl1: MESI_Two_Level-L00cache.sm:221: delay inport addr 1084cc0 
2508764003500: system.ruby.l0_cntrl1: MESI_Two_Level-L00cache.sm:221: delay inport addr 203de00 
2508764070500: system.ruby.l0_cntrl1: MESI_Two_Level-L00cache.sm:221: delay inport addr 1084d00 
2508764169500: system.ruby.l0_cntrl1: MESI_Two_Level-L00cache.sm:221: delay inport addr 107e400 
2508764295500: system.ruby.l0_cntrl1: MESI_Two_Level-L00cache.sm:221: delay inport addr 1084300 
2508764358000: system.ruby.l0_cntrl1: MESI_Two_Level-L00cache.sm:221: delay inport addr 1084340 
2508764422500: system.ruby.l0_cntrl1: MESI_Two_Level-L00cache.sm:221: delay inport addr 1084380 
2508764695500: system.ruby.l0_cntrl1: MESI_Two_Level-L00cache.sm:221: delay inport addr 7db1f800 
2508764701000: system.ruby.l0_cntrl1: MESI_Two_Level-L00cache.sm:221: delay inport addr 10843c0 
2508764812000: system.ruby.l0_cntrl1: MESI_Two_Level-L00cache.sm:221: delay inport addr 10d7c80 
2508764877000: system.ruby.l0_cntrl1: MESI_Two_Level-L00cache.sm:221: delay inport addr 7bb14880 
2508764961500: system.ruby.l0_cntrl1: MESI_Two_Level-L00cache.sm:221: delay inport addr 1084400 
2508765030500: system.ruby.l0_cntrl1: MESI_Two_Level-L00cache.sm:221: delay inport addr 1084440 
2508765052500: system.ruby.l0_cntrl1: MESI_Two_Level-L00cache.sm:221: delay inport addr 1083ac0 
2508765143500: system.ruby.l0_cntrl1: MESI_Two_Level-L00cache.sm:221: delay inport addr 1083b00 
2508765210500: system.ruby.l0_cntrl1: MESI_Two_Level-L00cache.sm:221: delay inport addr 1081740 
2508765215500: system.ruby.l0_cntrl1: MESI_Two_Level-L00cache.sm:221: delay inport addr 1083b40 
2508765290500: system.ruby.l0_cntrl1: MESI_Two_Level-L00cache.sm:221: delay inport addr 1081780 
2508765297500: system.ruby.l0_cntrl1: MESI_Two_Level-L00cache.sm:221: delay inport addr 10817c0 
2508765360500: system.ruby.l0_cntrl1: MESI_Two_Level-L00cache.sm:221: delay inport addr 1081800 
2508765424000: system.ruby.l0_cntrl1: MESI_Two_Level-L00cache.sm:221: delay inport addr 1081840 
2508765487500: system.ruby.l0_cntrl1: MESI_Two_Level-L00cache.sm:221: delay inport addr 1081880 
2508765516500: system.ruby.l0_cntrl1: MESI_Two_Level-L00cache.sm:221: delay inport addr 1084480 
2508765656000: system.ruby.l0_cntrl1: MESI_Two_Level-L00cache.sm:221: delay inport addr 1056200 
2508765661000: system.ruby.l0_cntrl1: MESI_Two_Level-L00cache.sm:221: delay inport addr 1056400 
2508765668500: system.ruby.l0_cntrl1: MESI_Two_Level-L00cache.sm:221: delay inport addr 11270c0 
2508765739000: system.ruby.l0_cntrl1: MESI_Two_Level-L00cache.sm:221: delay inport addr 1127100 
2508765802000: system.ruby.l0_cntrl1: MESI_Two_Level-L00cache.sm:221: delay inport addr 1127140 
2508765917000: system.ruby.l0_cntrl1: MESI_Two_Level-L00cache.sm:221: delay inport addr 1056440 
2508765929000: system.ruby.l0_cntrl1: MESI_Two_Level-L00cache.sm:221: delay inport addr 127a7c0 
2508766019000: system.ruby.l0_cntrl1: MESI_Two_Level-L00cache.sm:221: delay inport addr 127a800 
2508766094000: system.ruby.l0_cntrl1: MESI_Two_Level-L00cache.sm:221: delay inport addr 1056480 
2508766136500: system.ruby.l0_cntrl1: MESI_Two_Level-L00cache.sm:221: delay inport addr 11a0780 
2508766213000: system.ruby.l0_cntrl1: MESI_Two_Level-L00cache.sm:221: delay inport addr 11a07c0 
2508766276000: system.ruby.l0_cntrl1: MESI_Two_Level-L00cache.sm:221: delay inport addr 11a0800 
2508766359000: system.ruby.l0_cntrl1: MESI_Two_Level-L00cache.sm:221: delay inport addr 11a0840 
2508766369000: system.ruby.l0_cntrl1: MESI_Two_Level-L00cache.sm:221: delay inport addr 797c7180 
2508766424500: system.ruby.l0_cntrl1: MESI_Two_Level-L00cache.sm:221: delay inport addr 11a0880 
2508766492000: system.ruby.l0_cntrl1: MESI_Two_Level-L00cache.sm:221: delay inport addr 10d7cc0 
2508766497500: system.ruby.l0_cntrl1: MESI_Two_Level-L00cache.sm:221: delay inport addr 11a08c0 
2508766502500: system.ruby.l0_cntrl1: MESI_Two_Level-L00cache.sm:221: delay inport addr 11a0940 
2508766568000: system.ruby.l0_cntrl1: MESI_Two_Level-L00cache.sm:221: delay inport addr 11a0980 
2508766573000: system.ruby.l0_cntrl1: MESI_Two_Level-L00cache.sm:221: delay inport addr 11a0900 
2508766578000: system.ruby.l0_cntrl1: MESI_Two_Level-L00cache.sm:221: delay inport addr 11a0200 
2508766640500: system.ruby.l0_cntrl1: MESI_Two_Level-L00cache.sm:221: delay inport addr 11a0240 
2508766704000: system.ruby.l0_cntrl1: MESI_Two_Level-L00cache.sm:221: delay inport addr 11a0280 
2508766768000: system.ruby.l0_cntrl1: MESI_Two_Level-L00cache.sm:221: delay inport addr 11a02c0 
2508767219500: system.ruby.l0_cntrl1: MESI_Two_Level-L00cache.sm:221: delay inport addr 797c7800 
2508767349000: system.ruby.l0_cntrl1: MESI_Two_Level-L00cache.sm:221: delay inport addr 797c7840 
2508767452000: system.ruby.l0_cntrl1: MESI_Two_Level-L00cache.sm:221: delay inport addr 797c7880 
2508767579000: system.ruby.l0_cntrl1: MESI_Two_Level-L00cache.sm:221: delay inport addr 797c78c0 
2508767657000: system.ruby.l0_cntrl1: MESI_Two_Level-L00cache.sm:221: delay inport addr 797c7900 
2508767766000: system.ruby.l0_cntrl1: MESI_Two_Level-L00cache.sm:221: delay inport addr 797c7940 
2508767771500: system.ruby.l0_cntrl0: MESI_Two_Level-L00cache.sm:221: delay inport addr 7cb34600 
2508767842500: system.ruby.l0_cntrl1: MESI_Two_Level-L00cache.sm:221: delay inport addr 797c7980 
2508767989500: system.ruby.l0_cntrl1: MESI_Two_Level-L00cache.sm:221: delay inport addr 10564c0 
2508767994500: system.ruby.l0_cntrl1: MESI_Two_Level-L00cache.sm:221: delay inport addr 10565c0 
2508768057000: system.ruby.l0_cntrl1: MESI_Two_Level-L00cache.sm:221: delay inport addr 1056600 
2508768088500: system.ruby.l0_cntrl1: MESI_Two_Level-L00cache.sm:221: delay inport addr 11b4d00 
2508768179500: system.ruby.l0_cntrl1: MESI_Two_Level-L00cache.sm:221: delay inport addr 11b4d40 
2508768519500: system.ruby.l0_cntrl1: MESI_Two_Level-L00cache.sm:221: delay inport addr 11b4d80 
2508768658000: system.ruby.l0_cntrl1: MESI_Two_Level-L00cache.sm:221: delay inport addr 1056640 
2508768668000: system.ruby.l0_cntrl1: MESI_Two_Level-L00cache.sm:221: delay inport addr 1056500 
2508768795500: system.ruby.l0_cntrl1: MESI_Two_Level-L00cache.sm:221: delay inport addr 7bacda80 
2508768800500: system.ruby.l0_cntrl1: MESI_Two_Level-L00cache.sm:221: delay inport addr 1056680 
2508768976500: system.ruby.l0_cntrl1: MESI_Two_Level-L00cache.sm:221: delay inport addr 10566c0 
2508768994500: system.ruby.l0_cntrl1: MESI_Two_Level-L00cache.sm:221: delay inport addr 7bac8840 
2508768999500: system.ruby.l0_cntrl1: MESI_Two_Level-L00cache.sm:221: delay inport addr 7bac88c0 
2508769007500: system.ruby.l0_cntrl1: MESI_Two_Level-L00cache.sm:221: delay inport addr 7bac8880 
2508769013500: system.ruby.l0_cntrl1: MESI_Two_Level-L00cache.sm:221: delay inport addr 7bac8900 
2508769082500: system.ruby.l0_cntrl1: MESI_Two_Level-L00cache.sm:221: delay inport addr 7bac8980 
2508769110000: system.ruby.l0_cntrl1: MESI_Two_Level-L00cache.sm:221: delay inport addr 7bac8940 
2508769413000: system.ruby.l0_cntrl1: MESI_Two_Level-L00cache.sm:221: delay inport addr 7bac89c0 
2508769474000: system.ruby.l0_cntrl1: MESI_Two_Level-L00cache.sm:221: delay inport addr 7bac8a00 
2508769620000: system.ruby.l0_cntrl1: MESI_Two_Level-L00cache.sm:221: delay inport addr 7bac8a80 
2508769686500: system.ruby.l0_cntrl1: MESI_Two_Level-L00cache.sm:221: delay inport addr 7bac8ac0 
2508769755000: system.ruby.l0_cntrl1: MESI_Two_Level-L00cache.sm:221: delay inport addr 7bac8b00 
2508769826500: system.ruby.l0_cntrl1: MESI_Two_Level-L00cache.sm:221: delay inport addr 7bac8b40 
2508769896500: system.ruby.l0_cntrl1: MESI_Two_Level-L00cache.sm:221: delay inport addr 7bac8b80 
2508769968000: system.ruby.l0_cntrl1: MESI_Two_Level-L00cache.sm:221: delay inport addr 7bac8bc0 
2508770040500: system.ruby.l0_cntrl1: MESI_Two_Level-L00cache.sm:221: delay inport addr 7bac8c00 
2508770113000: system.ruby.l0_cntrl1: MESI_Two_Level-L00cache.sm:221: delay inport addr 7bac8c40 
2508770184500: system.ruby.l0_cntrl1: MESI_Two_Level-L00cache.sm:221: delay inport addr 7bac8c80 
2508770257000: system.ruby.l0_cntrl1: MESI_Two_Level-L00cache.sm:221: delay inport addr 7bac8cc0 
2508770329000: system.ruby.l0_cntrl1: MESI_Two_Level-L00cache.sm:221: delay inport addr 7bac8d00 
2508770401000: system.ruby.l0_cntrl1: MESI_Two_Level-L00cache.sm:221: delay inport addr 7bac8d40 
2508770472500: system.ruby.l0_cntrl1: MESI_Two_Level-L00cache.sm:221: delay inport addr 7bac8d80 
2508770542500: system.ruby.l0_cntrl1: MESI_Two_Level-L00cache.sm:221: delay inport addr 7bac8dc0 
2508770615000: system.ruby.l0_cntrl1: MESI_Two_Level-L00cache.sm:221: delay inport addr 7bac8e00 
2508770686500: system.ruby.l0_cntrl1: MESI_Two_Level-L00cache.sm:221: delay inport addr 7bac8e40 
2508770759500: system.ruby.l0_cntrl1: MESI_Two_Level-L00cache.sm:221: delay inport addr 7bac8e80 
2508770831500: system.ruby.l0_cntrl1: MESI_Two_Level-L00cache.sm:221: delay inport addr 7bac8ec0 
2508770901000: system.ruby.l0_cntrl1: MESI_Two_Level-L00cache.sm:221: delay inport addr 7bac8f00 
2508770973000: system.ruby.l0_cntrl1: MESI_Two_Level-L00cache.sm:221: delay inport addr 7bac8f40 
2508771043000: system.ruby.l0_cntrl1: MESI_Two_Level-L00cache.sm:221: delay inport addr 7bac8f80 
2508771119500: system.ruby.l0_cntrl1: MESI_Two_Level-L00cache.sm:221: delay inport addr 7bac8fc0 
2508771191000: system.ruby.l0_cntrl1: MESI_Two_Level-L00cache.sm:221: delay inport addr 7bac9000 
2508771433000: system.ruby.l0_cntrl1: MESI_Two_Level-L00cache.sm:221: delay inport addr 1056700 
2508771579500: system.ruby.l0_cntrl1: MESI_Two_Level-L00cache.sm:221: delay inport addr 1056740 
2508771584500: system.ruby.l0_cntrl1: MESI_Two_Level-L00cache.sm:221: delay inport addr 1056540 
2508771600500: system.ruby.l0_cntrl1: MESI_Two_Level-L00cache.sm:221: delay inport addr 7d504500 
2508771709500: system.ruby.l0_cntrl1: MESI_Two_Level-L00cache.sm:221: delay inport addr 7bb15e00 
2508771794000: system.ruby.l0_cntrl1: MESI_Two_Level-L00cache.sm:221: delay inport addr 7bb14000 
2508772280500: system.ruby.l0_cntrl0: MESI_Two_Level-L00cache.sm:221: delay inport addr 11935c0 
2508772563000: system.ruby.l0_cntrl1: MESI_Two_Level-L00cache.sm:221: delay inport addr 163ea00 
2508772690500: system.ruby.l0_cntrl1: MESI_Two_Level-L00cache.sm:221: delay inport addr 1056780 
2508772866000: system.ruby.l0_cntrl1: MESI_Two_Level-L00cache.sm:221: delay inport addr 10567c0 
2508773048000: system.ruby.l0_cntrl1: MESI_Two_Level-L00cache.sm:221: delay inport addr 1056800 
2508773072500: system.ruby.l0_cntrl1: MESI_Two_Level-L00cache.sm:221: delay inport addr 7bb14a00 
2508773077500: system.ruby.l0_cntrl1: MESI_Two_Level-L00cache.sm:221: delay inport addr 7bb14a80 
2508773113000: system.ruby.l0_cntrl1: MESI_Two_Level-L00cache.sm:221: delay inport addr 7bb14ac0 
2508773138500: system.ruby.l0_cntrl1: MESI_Two_Level-L00cache.sm:221: delay inport addr 1056840 
2508773229000: system.ruby.l0_cntrl1: MESI_Two_Level-L00cache.sm:221: delay inport addr 1056880 
2508773292500: system.ruby.l0_cntrl1: MESI_Two_Level-L00cache.sm:221: delay inport addr 10568c0 
2508773301500: system.ruby.l0_cntrl1: MESI_Two_Level-L00cache.sm:221: delay inport addr 1056580 
2508773320500: system.ruby.l0_cntrl1: MESI_Two_Level-L00cache.sm:221: delay inport addr 1076000 
2508773358000: system.ruby.l0_cntrl1: MESI_Two_Level-L00cache.sm:221: delay inport addr 1056900 
2508773446000: system.ruby.l0_cntrl1: MESI_Two_Level-L00cache.sm:221: delay inport addr 1056940 
2508773453000: system.ruby.l0_cntrl1: MESI_Two_Level-L00cache.sm:221: delay inport addr 7cb84b40 
2508773656500: system.ruby.l0_cntrl1: MESI_Two_Level-L00cache.sm:221: delay inport addr 7cb85b80 
2508773738500: system.ruby.l0_cntrl1: MESI_Two_Level-L00cache.sm:221: delay inport addr 7cb85bc0 
2508773811500: system.ruby.l0_cntrl1: MESI_Two_Level-L00cache.sm:221: delay inport addr 7cb85c00 
2508773882500: system.ruby.l0_cntrl1: MESI_Two_Level-L00cache.sm:221: delay inport addr 7cb85c40 
2508773955500: system.ruby.l0_cntrl1: MESI_Two_Level-L00cache.sm:221: delay inport addr 7cb85c80 
2508774034500: system.ruby.l0_cntrl1: MESI_Two_Level-L00cache.sm:221: delay inport addr 7cb85cc0 
2508774122000: system.ruby.l0_cntrl1: MESI_Two_Level-L00cache.sm:221: delay inport addr 1055240 
2508774184000: system.ruby.l0_cntrl1: MESI_Two_Level-L00cache.sm:221: delay inport addr 1055280 
2508774247000: system.ruby.l0_cntrl1: MESI_Two_Level-L00cache.sm:221: delay inport addr 10552c0 
2508774310000: system.ruby.l0_cntrl1: MESI_Two_Level-L00cache.sm:221: delay inport addr 1055300 
2508774372500: system.ruby.l0_cntrl1: MESI_Two_Level-L00cache.sm:221: delay inport addr 1055340 
2508774435000: system.ruby.l0_cntrl1: MESI_Two_Level-L00cache.sm:221: delay inport addr 1055380 
2508774497500: system.ruby.l0_cntrl1: MESI_Two_Level-L00cache.sm:221: delay inport addr 10553c0 
2508774560500: system.ruby.l0_cntrl1: MESI_Two_Level-L00cache.sm:221: delay inport addr 1055400 
2508774586500: system.ruby.l0_cntrl1: MESI_Two_Level-L00cache.sm:221: delay inport addr 1051140 
2508774680000: system.ruby.l0_cntrl1: MESI_Two_Level-L00cache.sm:221: delay inport addr 1051180 
2508774802000: system.ruby.l0_cntrl1: MESI_Two_Level-L00cache.sm:221: delay inport addr 1136e00 
2508774868500: system.ruby.l0_cntrl1: MESI_Two_Level-L00cache.sm:221: delay inport addr 1136a80 
2508774892500: system.ruby.l0_cntrl1: MESI_Two_Level-L00cache.sm:221: delay inport addr 1136e40 
2508774932000: system.ruby.l0_cntrl1: MESI_Two_Level-L00cache.sm:221: delay inport addr 1136ac0 
2508774996500: system.ruby.l0_cntrl1: MESI_Two_Level-L00cache.sm:221: delay inport addr 1136b00 
2508775060500: system.ruby.l0_cntrl1: MESI_Two_Level-L00cache.sm:221: delay inport addr 1136b40 
2508775133000: system.ruby.l0_cntrl1: MESI_Two_Level-L00cache.sm:221: delay inport addr 1136e80 
2508775229500: system.ruby.l0_cntrl0: MESI_Two_Level-L00cache.sm:221: delay inport addr 7cb52040 
2508775269500: system.ruby.l0_cntrl1: MESI_Two_Level-L00cache.sm:221: delay inport addr 1136ec0 
2508775333000: system.ruby.l0_cntrl1: MESI_Two_Level-L00cache.sm:221: delay inport addr 1136f00 
2508775396500: system.ruby.l0_cntrl1: MESI_Two_Level-L00cache.sm:221: delay inport addr 1136f40 
2508775429500: system.ruby.l0_cntrl1: MESI_Two_Level-L00cache.sm:221: delay inport addr 20cfa80 
2508775459000: system.ruby.l0_cntrl1: MESI_Two_Level-L00cache.sm:221: delay inport addr 1136f80 
2508775525000: system.ruby.l0_cntrl1: MESI_Two_Level-L00cache.sm:221: delay inport addr 1136fc0 
2508775538500: system.ruby.l0_cntrl1: MESI_Two_Level-L00cache.sm:221: delay inport addr 20da340 
2508775589000: system.ruby.l0_cntrl1: MESI_Two_Level-L00cache.sm:221: delay inport addr 1137000 
2508775591000: system.ruby.l0_cntrl1: MESI_Two_Level-L00cache.sm:221: delay inport addr 11347c0 
2508775608500: system.ruby.l0_cntrl1: MESI_Two_Level-L00cache.sm:221: delay inport addr 1137140 
2508775671000: system.ruby.l0_cntrl1: MESI_Two_Level-L00cache.sm:221: delay inport addr 1137180 
2508775735000: system.ruby.l0_cntrl1: MESI_Two_Level-L00cache.sm:221: delay inport addr 11371c0 
2508775742000: system.ruby.l0_cntrl1: MESI_Two_Level-L00cache.sm:221: delay inport addr 1137740 
2508775806000: system.ruby.l0_cntrl1: MESI_Two_Level-L00cache.sm:221: delay inport addr 1137780 
2508775871500: system.ruby.l0_cntrl1: MESI_Two_Level-L00cache.sm:221: delay inport addr 1137200 
2508785408500: system.ruby.l0_cntrl1: MESI_Two_Level-L00cache.sm:221: delay inport addr 1137240 
2508785994500: system.ruby.l0_cntrl1: MESI_Two_Level-L00cache.sm:221: delay inport addr 7cb84540 
2508786006000: system.ruby.l0_cntrl1: MESI_Two_Level-L00cache.sm:221: delay inport addr 10511c0 
2508786012000: system.ruby.l0_cntrl1: MESI_Two_Level-L00cache.sm:221: delay inport addr 1055440 
2508786083500: system.ruby.l0_cntrl1: MESI_Two_Level-L00cache.sm:221: delay inport addr 1051200 
2508786129000: system.ruby.l0_cntrl1: MESI_Two_Level-L00cache.sm:221: delay inport addr 200a8c0 
2508786134000: system.ruby.l0_cntrl1: MESI_Two_Level-L00cache.sm:221: delay inport addr 200a940 
2508786149000: system.ruby.l0_cntrl1: MESI_Two_Level-L00cache.sm:221: delay inport addr 200a980 
2508786203000: system.ruby.l0_cntrl1: MESI_Two_Level-L00cache.sm:221: delay inport addr 200a9c0 
2508786221000: system.ruby.l0_cntrl1: MESI_Two_Level-L00cache.sm:221: delay inport addr 200aa00 
2508786226000: system.ruby.l0_cntrl1: MESI_Two_Level-L00cache.sm:221: delay inport addr 200aa80 
2508786229000: system.ruby.l0_cntrl1: MESI_Two_Level-L00cache.sm:221: delay inport addr 200aa40 
2508786277500: system.ruby.l0_cntrl1: MESI_Two_Level-L00cache.sm:221: delay inport addr 200aac0 
2508786296000: system.ruby.l0_cntrl1: MESI_Two_Level-L00cache.sm:221: delay inport addr 200ab00 
2508786307500: system.ruby.l0_cntrl1: MESI_Two_Level-L00cache.sm:221: delay inport addr 200ab80 
2508786310500: system.ruby.l0_cntrl1: MESI_Two_Level-L00cache.sm:221: delay inport addr 200ab40 
2508786354000: system.ruby.l0_cntrl1: MESI_Two_Level-L00cache.sm:221: delay inport addr 200abc0 
2508786379500: system.ruby.l0_cntrl1: MESI_Two_Level-L00cache.sm:221: delay inport addr 200ac00 
2508786394500: system.ruby.l0_cntrl1: MESI_Two_Level-L00cache.sm:221: delay inport addr 200ac40 
2508786428500: system.ruby.l0_cntrl1: MESI_Two_Level-L00cache.sm:221: delay inport addr 200acc0 
2508786453000: system.ruby.l0_cntrl1: MESI_Two_Level-L00cache.sm:221: delay inport addr 200ad00 
2508786478500: system.ruby.l0_cntrl1: MESI_Two_Level-L00cache.sm:221: delay inport addr 200ad40 
2508786482500: system.ruby.l0_cntrl1: MESI_Two_Level-L00cache.sm:221: delay inport addr 200ad80 
2508786507000: system.ruby.l0_cntrl1: MESI_Two_Level-L00cache.sm:221: delay inport addr 200adc0 
2508786527500: system.ruby.l0_cntrl1: MESI_Two_Level-L00cache.sm:221: delay inport addr 200ae00 
2508786564500: system.ruby.l0_cntrl1: MESI_Two_Level-L00cache.sm:221: delay inport addr 200ae40 
2508786581000: system.ruby.l0_cntrl1: MESI_Two_Level-L00cache.sm:221: delay inport addr 200aec0 
Exiting @ tick 2508786595000 because user interrupt received
